@<TRIPOS>MOLECULE
13
 47 50 0 0 0
SMALL
GASTEIGER
****
Structure written by MMmdl.
@<TRIPOS>ATOM
      1 C          -2.2088   12.9419  -10.9697 C.3     1  LIG1        0.0724
      2 C          -2.1904   14.4671  -10.9424 C.3     1  LIG1       -0.0095
      3 C          -3.6992   12.5876  -10.8377 C.3     1  LIG1        0.0410
      4 O          -1.6826   12.4744  -12.1795 O.3     1  LIG1       -0.3902
      5 C          -3.5107   14.9139  -11.6089 C.3     1  LIG1        0.0175
      6 N          -4.3443   13.7200  -11.5243 N.am    1  LIG1       -0.2949
      7 C          -6.3525   12.3601  -12.0338 C.ar    1  LIG1        0.0790
      8 C          -6.9727   11.7556  -13.1375 C.ar    1  LIG1        0.1310
      9 C          -7.7097   10.5633  -13.0339 C.ar    1  LIG1        0.0060
     10 C          -6.5001   11.8056  -10.7491 C.ar    1  LIG1       -0.0351
     11 O          -6.8506   12.3073  -14.3824 O.3     1  LIG1       -0.5059
     12 C          -5.5377   13.6382  -12.2001 C.2     1  LIG1        0.2502
     13 O          -5.9500   14.5444  -12.9177 O.2     1  LIG1       -0.2699
     14 C          -7.2308   10.6159  -10.6131 C.ar    1  LIG1        0.0239
     15 C          -7.8083   10.0113  -11.7524 C.ar    1  LIG1        0.0695
     16 N          -8.4200    8.8675  -11.2880 N.ar    1  LIG1       -0.2766
     17 N          -8.2847    8.7400   -9.9757 N.ar    1  LIG1       -0.1774
     18 C          -7.6047    9.7473   -9.5145 C.ar    1  LIG1        0.0748
     19 C          -7.3264    9.8951   -8.0245 C.3     1  LIG1        0.0171
     20 C          -5.9604   10.4805   -7.7353 C.ar    1  LIG1       -0.0413
     21 C          -4.8075    9.7596   -8.0491 C.ar    1  LIG1       -0.0582
     22 C          -3.4358   11.5809   -7.2415 C.ar    1  LIG1       -0.0588
     23 C          -4.5835   12.3061   -6.9225 C.ar    1  LIG1       -0.0502
     24 C          -3.5481   10.3107   -7.8024 C.ar    1  LIG1       -0.0612
     25 C          -5.8471   11.7541   -7.1666 C.ar    1  LIG1       -0.0553
     26 C          -4.4650   13.6954   -6.3241 C.3     1  LIG1       -0.0397
     27 H          -1.6125   12.4839  -10.1621 H       1  LIG1        0.0609
     28 H          -2.1549   14.8184   -9.9245 H       1  LIG1        0.0306
     29 H          -1.3157   14.8975  -11.4569 H       1  LIG1        0.0306
     30 H          -3.9463   12.5683   -9.7744 H       1  LIG1        0.0490
     31 H          -3.8737   11.6025  -11.2997 H       1  LIG1        0.0490
     32 H          -0.8317   12.8970  -12.3310 H       1  LIG1        0.2098
     33 H          -3.3143   15.2104  -12.6382 H       1  LIG1        0.0465
     34 H          -3.9412   15.7445  -11.0416 H       1  LIG1        0.0465
     35 H          -8.1761   10.1015  -13.8960 H       1  LIG1        0.0675
     36 H          -6.0592   12.2786   -9.8757 H       1  LIG1        0.0633
     37 H          -7.3831   11.8565  -15.0461 H       1  LIG1        0.2922
     38 H          -8.9260    8.1741  -11.8308 H       1  LIG1        0.1889
     39 H          -8.0952   10.5284   -7.5802 H       1  LIG1        0.0377
     40 H          -7.4226    8.9158   -7.5190 H       1  LIG1        0.0377
     41 H          -4.8834    8.7772   -8.4902 H       1  LIG1        0.0620
     42 H          -2.4582   12.0019   -7.0535 H       1  LIG1        0.0620
     43 H          -2.6526    9.7492   -8.0472 H       1  LIG1        0.0618
     44 H          -6.7368   12.3185   -6.9225 H       1  LIG1        0.0623
     45 H          -3.5360   14.1747   -6.6301 H       1  LIG1        0.0278
     46 H          -4.5030   13.6559   -5.2327 H       1  LIG1        0.0278
     47 H          -5.2731   14.3301   -6.6809 H       1  LIG1        0.0278
@<TRIPOS>BOND
     1     1     2    1
     2     1     3    1
     3     1     4    1
     4     1    27    1
     5     2     5    1
     6     2    28    1
     7     2    29    1
     8     3     6    1
     9     3    30    1
    10     3    31    1
    11     4    32    1
    12     5     6    1
    13     5    33    1
    14     5    34    1
    15     6    12   am
    16     7     8   ar
    17     7    10   ar
    18     7    12    1
    19     8     9   ar
    20     8    11    1
    21     9    15   ar
    22     9    35    1
    23    10    14   ar
    24    10    36    1
    25    11    37    1
    26    12    13    2
    27    14    15   ar
    28    14    18   ar
    29    15    16   ar
    30    16    17   ar
    31    16    38    1
    32    17    18   ar
    33    18    19    1
    34    19    20    1
    35    19    39    1
    36    19    40    1
    37    20    21   ar
    38    20    25   ar
    39    21    24   ar
    40    21    41    1
    41    22    23   ar
    42    22    24   ar
    43    22    42    1
    44    23    25   ar
    45    23    26    1
    46    24    43    1
    47    25    44    1
    48    26    45    1
    49    26    46    1
    50    26    47    1
