@<TRIPOS>MOLECULE
14
 34 35 0 0 0
SMALL
GASTEIGER
****
Structure written by MMmdl.
@<TRIPOS>ATOM
      1 C          -6.3887   12.3647  -12.0798 C.ar    1  LIG1        0.0374
      2 C          -6.4962   11.8202  -10.8023 C.ar    1  LIG1       -0.0387
      3 C          -7.7456   10.5858  -13.0568 C.ar    1  LIG1       -0.0356
      4 C          -7.0126   11.7716  -13.1776 C.ar    1  LIG1       -0.0476
      5 C          -7.8340   10.0285  -11.7877 C.ar    1  LIG1        0.0660
      6 C          -7.2471   10.6293  -10.6255 C.ar    1  LIG1        0.0234
      7 C          -7.6099    9.7738   -9.5366 C.ar    1  LIG1        0.0708
      8 N          -8.2971    8.7499   -9.9997 N.ar    1  LIG1       -0.1777
      9 N          -8.4324    8.8805  -11.3156 N.ar    1  LIG1       -0.2767
     10 C          -7.3321    9.9039   -8.0386 C.3     1  LIG1       -0.0057
     11 N          -4.4077   13.6374  -11.5161 N.am    1  LIG1       -0.3144
     12 C          -3.4400   14.7362  -11.5603 C.3     1  LIG1        0.0004
     13 C          -5.5080   13.5935  -12.2349 C.2     1  LIG1        0.2439
     14 O          -5.8585   14.4899  -13.0509 O.2     1  LIG1       -0.2702
     15 C          -5.9274   10.4444   -7.6346 C.3     1  LIG1       -0.0412
     16 C          -4.7880    9.9988   -8.5813 C.3     1  LIG1       -0.0623
     17 C          -5.9224   11.9644   -7.3345 C.3     1  LIG1       -0.0623
     18 H          -6.0382   12.2728   -9.9607 H       1  LIG1        0.0632
     19 H          -8.2100   10.1267  -13.9275 H       1  LIG1        0.0639
     20 H          -6.9074   12.2361  -14.1520 H       1  LIG1        0.0626
     21 H          -8.9323    8.1670  -11.8392 H       1  LIG1        0.1889
     22 H          -8.0901   10.5612   -7.6086 H       1  LIG1        0.0331
     23 H          -7.5048    8.9551   -7.5303 H       1  LIG1        0.0331
     24 H          -4.1635   12.8367  -10.9301 H       1  LIG1        0.1487
     25 H          -2.4281   14.3561  -11.4328 H       1  LIG1        0.0426
     26 H          -3.6222   15.4408  -10.7497 H       1  LIG1        0.0426
     27 H          -3.4529   15.2842  -12.5019 H       1  LIG1        0.0426
     28 H          -5.6875    9.9831   -6.6758 H       1  LIG1        0.0299
     29 H          -3.8140   10.3484   -8.2443 H       1  LIG1        0.0232
     30 H          -4.8951   10.4012   -9.5779 H       1  LIG1        0.0232
     31 H          -4.7479    8.9096   -8.6828 H       1  LIG1        0.0232
     32 H          -4.9281   12.3070   -7.0401 H       1  LIG1        0.0232
     33 H          -6.6508   12.2215   -6.5656 H       1  LIG1        0.0232
     34 H          -6.2266   12.5877   -8.1480 H       1  LIG1        0.0232
@<TRIPOS>BOND
     1     1     2   ar
     2     1     4   ar
     3     1    13    1
     4     2     6   ar
     5     2    18    1
     6     3     4   ar
     7     3     5   ar
     8     3    19    1
     9     4    20    1
    10     5     6   ar
    11     5     9   ar
    12     6     7   ar
    13     7     8   ar
    14     7    10    1
    15     8     9   ar
    16     9    21    1
    17    10    15    1
    18    10    22    1
    19    10    23    1
    20    11    12    1
    21    11    13   am
    22    11    24    1
    23    12    25    1
    24    12    26    1
    25    12    27    1
    26    13    14    2
    27    15    16    1
    28    15    17    1
    29    15    28    1
    30    16    29    1
    31    16    30    1
    32    16    31    1
    33    17    32    1
    34    17    33    1
    35    17    34    1
