14
 OpenBabel02152110423D
Structure written by MMmdl.
 34 35  0  0  1  0  0  0  0  0999 V2000
   -6.3887   12.3647  -12.0798 C   0  0  0  0  0  0  0  0  0  0  0  0
   -6.4962   11.8202  -10.8023 C   0  0  0  0  0  0  0  0  0  0  0  0
   -7.7456   10.5858  -13.0568 C   0  0  0  0  0  0  0  0  0  0  0  0
   -7.0126   11.7716  -13.1776 C   0  0  0  0  0  0  0  0  0  0  0  0
   -7.8340   10.0285  -11.7877 C   0  0  0  0  0  0  0  0  0  0  0  0
   -7.2471   10.6293  -10.6255 C   0  0  0  0  0  0  0  0  0  0  0  0
   -7.6099    9.7738   -9.5366 C   0  0  0  0  0  0  0  0  0  0  0  0
   -8.2971    8.7499   -9.9997 N   0  0  0  0  0  0  0  0  0  0  0  0
   -8.4324    8.8805  -11.3156 N   0  0  0  0  0  0  0  0  0  0  0  0
   -7.3321    9.9039   -8.0386 C   0  0  0  0  0  0  0  0  0  0  0  0
   -4.4077   13.6374  -11.5161 N   0  0  0  0  0  0  0  0  0  0  0  0
   -3.4400   14.7362  -11.5603 C   0  0  0  0  0  0  0  0  0  0  0  0
   -5.5080   13.5935  -12.2349 C   0  0  0  0  0  0  0  0  0  0  0  0
   -5.8585   14.4899  -13.0509 O   0  0  0  0  0  0  0  0  0  0  0  0
   -5.9274   10.4444   -7.6346 C   0  0  0  0  0  0  0  0  0  0  0  0
   -4.7880    9.9988   -8.5813 C   0  0  0  0  0  0  0  0  0  0  0  0
   -5.9224   11.9644   -7.3345 C   0  0  0  0  0  0  0  0  0  0  0  0
   -6.0382   12.2728   -9.9607 H   0  0  0  0  0  0  0  0  0  0  0  0
   -8.2100   10.1267  -13.9275 H   0  0  0  0  0  0  0  0  0  0  0  0
   -6.9074   12.2361  -14.1520 H   0  0  0  0  0  0  0  0  0  0  0  0
   -8.9323    8.1670  -11.8392 H   0  0  0  0  0  0  0  0  0  0  0  0
   -8.0901   10.5612   -7.6086 H   0  0  0  0  0  0  0  0  0  0  0  0
   -7.5048    8.9551   -7.5303 H   0  0  0  0  0  0  0  0  0  0  0  0
   -4.1635   12.8367  -10.9301 H   0  0  0  0  0  0  0  0  0  0  0  0
   -2.4281   14.3561  -11.4328 H   0  0  0  0  0  0  0  0  0  0  0  0
   -3.6222   15.4408  -10.7497 H   0  0  0  0  0  0  0  0  0  0  0  0
   -3.4529   15.2842  -12.5019 H   0  0  0  0  0  0  0  0  0  0  0  0
   -5.6875    9.9831   -6.6758 H   0  0  0  0  0  0  0  0  0  0  0  0
   -3.8140   10.3484   -8.2443 H   0  0  0  0  0  0  0  0  0  0  0  0
   -4.8951   10.4012   -9.5779 H   0  0  0  0  0  0  0  0  0  0  0  0
   -4.7479    8.9096   -8.6828 H   0  0  0  0  0  0  0  0  0  0  0  0
   -4.9281   12.3070   -7.0401 H   0  0  0  0  0  0  0  0  0  0  0  0
   -6.6508   12.2215   -6.5656 H   0  0  0  0  0  0  0  0  0  0  0  0
   -6.2266   12.5877   -8.1480 H   0  0  0  0  0  0  0  0  0  0  0  0
  1  2  2  0  0  0  0
  1  4  1  0  0  0  0
  1 13  1  0  0  0  0
  2  6  1  0  0  0  0
  2 18  1  0  0  0  0
  3  4  2  0  0  0  0
  3  5  1  0  0  0  0
  3 19  1  0  0  0  0
  4 20  1  0  0  0  0
  5  6  2  0  0  0  0
  5  9  1  0  0  0  0
  6  7  1  0  0  0  0
  7  8  2  0  0  0  0
  7 10  1  0  0  0  0
  8  9  1  0  0  0  0
  9 21  1  0  0  0  0
 10 15  1  0  0  0  0
 10 22  1  0  0  0  0
 10 23  1  0  0  0  0
 11 12  1  0  0  0  0
 11 13  1  0  0  0  0
 11 24  1  0  0  0  0
 12 25  1  0  0  0  0
 12 26  1  0  0  0  0
 12 27  1  0  0  0  0
 13 14  2  0  0  0  0
 15 16  1  0  0  0  0
 15 17  1  0  0  0  0
 15 28  1  0  0  0  0
 16 29  1  0  0  0  0
 16 30  1  0  0  0  0
 16 31  1  0  0  0  0
 17 32  1  0  0  0  0
 17 33  1  0  0  0  0
 17 34  1  0  0  0  0
M  END
>  <Name>
14

>  <IC50[uM]>
0.84

$$$$
