@<TRIPOS>MOLECULE
15
 43 45 0 0 0
SMALL
GASTEIGER
****
Structure written by MMmdl.
@<TRIPOS>ATOM
      1 C          -6.3730   12.3647  -12.0124 C.ar    1  LIG1        0.0374
      2 C          -6.5249   11.8167  -10.7375 C.ar    1  LIG1       -0.0387
      3 C          -7.7225   10.5819  -13.0270 C.ar    1  LIG1       -0.0356
      4 C          -6.9871   11.7813  -13.1320 C.ar    1  LIG1       -0.0476
      5 C          -7.8205   10.0150  -11.7538 C.ar    1  LIG1        0.0661
      6 C          -7.2514   10.6217  -10.6093 C.ar    1  LIG1        0.0237
      7 C          -7.6113    9.7463   -9.5119 C.ar    1  LIG1        0.0748
      8 N          -8.2838    8.7282   -9.9768 N.ar    1  LIG1       -0.1774
      9 N          -8.4166    8.8609  -11.2984 N.ar    1  LIG1       -0.2767
     10 C          -7.3282    9.8959   -8.0269 C.3     1  LIG1        0.0173
     11 N          -4.4004   13.6489  -11.4541 N.am    1  LIG1       -0.3144
     12 C          -3.4592   14.7715  -11.4916 C.3     1  LIG1        0.0004
     13 C          -5.5363   13.6231  -12.1917 C.2     1  LIG1        0.2439
     14 O          -5.8861   14.5056  -12.9557 O.2     1  LIG1       -0.2702
     15 C          -5.9554   10.4909   -7.7390 C.ar    1  LIG1       -0.0378
     16 C          -5.8447   11.7612   -7.1661 C.ar    1  LIG1       -0.0128
     17 C          -4.5697   12.3054   -6.9214 C.ar    1  LIG1        0.1618
     18 C          -3.4308   11.5801   -7.2259 C.ar    1  LIG1        0.1615
     19 C          -3.5429   10.3015   -7.8076 C.ar    1  LIG1       -0.0160
     20 C          -4.8018    9.7661   -8.0596 C.ar    1  LIG1       -0.0545
     21 O          -4.4352   13.5609   -6.3638 O.3     1  LIG1       -0.4914
     22 C          -3.6839   14.5445   -7.0766 C.3     1  LIG1        0.0790
     23 O          -2.1928   12.1397   -6.9410 O.3     1  LIG1       -0.4915
     24 C          -1.0568   11.8071   -7.7386 C.3     1  LIG1        0.0790
     25 H          -6.0865   12.2817   -9.8717 H       1  LIG1        0.0632
     26 H          -8.1761   10.1266  -13.8989 H       1  LIG1        0.0639
     27 H          -6.8862   12.2301  -14.1010 H       1  LIG1        0.0626
     28 H          -8.9109    8.1585  -11.8401 H       1  LIG1        0.1889
     29 H          -8.0978   10.5402   -7.5937 H       1  LIG1        0.0377
     30 H          -7.4435    8.9306   -7.5162 H       1  LIG1        0.0377
     31 H          -4.1544   12.8539  -10.8932 H       1  LIG1        0.1487
     32 H          -2.4485   14.4035  -11.3387 H       1  LIG1        0.0426
     33 H          -3.6772   15.4626  -10.6827 H       1  LIG1        0.0426
     34 H          -3.4583   15.3250  -12.4323 H       1  LIG1        0.0426
     35 H          -6.7296   12.3147   -6.9189 H       1  LIG1        0.0658
     36 H          -2.6623    9.7270   -8.0552 H       1  LIG1        0.0655
     37 H          -4.8859    8.7827   -8.5028 H       1  LIG1        0.0622
     38 H          -3.6209   15.4399   -6.4624 H       1  LIG1        0.0660
     39 H          -4.1459   14.7973   -8.0279 H       1  LIG1        0.0660
     40 H          -2.6551   14.2645   -7.2771 H       1  LIG1        0.0660
     41 H          -0.2132   12.3981   -7.3814 H       1  LIG1        0.0660
     42 H          -1.2092   12.0638   -8.7945 H       1  LIG1        0.0660
     43 H          -0.7777   10.7513   -7.6419 H       1  LIG1        0.0660
@<TRIPOS>BOND
     1     1     2   ar
     2     1     4   ar
     3     1    13    1
     4     2     6   ar
     5     2    25    1
     6     3     4   ar
     7     3     5   ar
     8     3    26    1
     9     4    27    1
    10     5     6   ar
    11     5     9   ar
    12     6     7   ar
    13     7     8   ar
    14     7    10    1
    15     8     9   ar
    16     9    28    1
    17    10    15    1
    18    10    29    1
    19    10    30    1
    20    11    12    1
    21    11    13   am
    22    11    31    1
    23    12    32    1
    24    12    33    1
    25    12    34    1
    26    13    14    2
    27    15    16   ar
    28    15    20   ar
    29    16    17   ar
    30    16    35    1
    31    17    18   ar
    32    17    21    1
    33    18    19   ar
    34    18    23    1
    35    19    20   ar
    36    19    36    1
    37    20    37    1
    38    21    22    1
    39    22    38    1
    40    22    39    1
    41    22    40    1
    42    23    24    1
    43    24    41    1
    44    24    42    1
    45    24    43    1
