15
 OpenBabel02152110423D
Structure written by MMmdl.
 43 45  0  0  1  0  0  0  0  0999 V2000
   -6.3730   12.3647  -12.0124 C   0  0  0  0  0  0  0  0  0  0  0  0
   -6.5249   11.8167  -10.7375 C   0  0  0  0  0  0  0  0  0  0  0  0
   -7.7225   10.5819  -13.0270 C   0  0  0  0  0  0  0  0  0  0  0  0
   -6.9871   11.7813  -13.1320 C   0  0  0  0  0  0  0  0  0  0  0  0
   -7.8205   10.0150  -11.7538 C   0  0  0  0  0  0  0  0  0  0  0  0
   -7.2514   10.6217  -10.6093 C   0  0  0  0  0  0  0  0  0  0  0  0
   -7.6113    9.7463   -9.5119 C   0  0  0  0  0  0  0  0  0  0  0  0
   -8.2838    8.7282   -9.9768 N   0  0  0  0  0  0  0  0  0  0  0  0
   -8.4166    8.8609  -11.2984 N   0  0  0  0  0  0  0  0  0  0  0  0
   -7.3282    9.8959   -8.0269 C   0  0  0  0  0  0  0  0  0  0  0  0
   -4.4004   13.6489  -11.4541 N   0  0  0  0  0  0  0  0  0  0  0  0
   -3.4592   14.7715  -11.4916 C   0  0  0  0  0  0  0  0  0  0  0  0
   -5.5363   13.6231  -12.1917 C   0  0  0  0  0  0  0  0  0  0  0  0
   -5.8861   14.5056  -12.9557 O   0  0  0  0  0  0  0  0  0  0  0  0
   -5.9554   10.4909   -7.7390 C   0  0  0  0  0  0  0  0  0  0  0  0
   -5.8447   11.7612   -7.1661 C   0  0  0  0  0  0  0  0  0  0  0  0
   -4.5697   12.3054   -6.9214 C   0  0  0  0  0  0  0  0  0  0  0  0
   -3.4308   11.5801   -7.2259 C   0  0  0  0  0  0  0  0  0  0  0  0
   -3.5429   10.3015   -7.8076 C   0  0  0  0  0  0  0  0  0  0  0  0
   -4.8018    9.7661   -8.0596 C   0  0  0  0  0  0  0  0  0  0  0  0
   -4.4352   13.5609   -6.3638 O   0  0  0  0  0  0  0  0  0  0  0  0
   -3.6839   14.5445   -7.0766 C   0  0  0  0  0  0  0  0  0  0  0  0
   -2.1928   12.1397   -6.9410 O   0  0  0  0  0  0  0  0  0  0  0  0
   -1.0568   11.8071   -7.7386 C   0  0  0  0  0  0  0  0  0  0  0  0
   -6.0865   12.2817   -9.8717 H   0  0  0  0  0  0  0  0  0  0  0  0
   -8.1761   10.1266  -13.8989 H   0  0  0  0  0  0  0  0  0  0  0  0
   -6.8862   12.2301  -14.1010 H   0  0  0  0  0  0  0  0  0  0  0  0
   -8.9109    8.1585  -11.8401 H   0  0  0  0  0  0  0  0  0  0  0  0
   -8.0978   10.5402   -7.5937 H   0  0  0  0  0  0  0  0  0  0  0  0
   -7.4435    8.9306   -7.5162 H   0  0  0  0  0  0  0  0  0  0  0  0
   -4.1544   12.8539  -10.8932 H   0  0  0  0  0  0  0  0  0  0  0  0
   -2.4485   14.4035  -11.3387 H   0  0  0  0  0  0  0  0  0  0  0  0
   -3.6772   15.4626  -10.6827 H   0  0  0  0  0  0  0  0  0  0  0  0
   -3.4583   15.3250  -12.4323 H   0  0  0  0  0  0  0  0  0  0  0  0
   -6.7296   12.3147   -6.9189 H   0  0  0  0  0  0  0  0  0  0  0  0
   -2.6623    9.7270   -8.0552 H   0  0  0  0  0  0  0  0  0  0  0  0
   -4.8859    8.7827   -8.5028 H   0  0  0  0  0  0  0  0  0  0  0  0
   -3.6209   15.4399   -6.4624 H   0  0  0  0  0  0  0  0  0  0  0  0
   -4.1459   14.7973   -8.0279 H   0  0  0  0  0  0  0  0  0  0  0  0
   -2.6551   14.2645   -7.2771 H   0  0  0  0  0  0  0  0  0  0  0  0
   -0.2132   12.3981   -7.3814 H   0  0  0  0  0  0  0  0  0  0  0  0
   -1.2092   12.0638   -8.7945 H   0  0  0  0  0  0  0  0  0  0  0  0
   -0.7777   10.7513   -7.6419 H   0  0  0  0  0  0  0  0  0  0  0  0
  1  2  2  0  0  0  0
  1  4  1  0  0  0  0
  1 13  1  0  0  0  0
  2  6  1  0  0  0  0
  2 25  1  0  0  0  0
  3  4  2  0  0  0  0
  3  5  1  0  0  0  0
  3 26  1  0  0  0  0
  4 27  1  0  0  0  0
  5  6  2  0  0  0  0
  5  9  1  0  0  0  0
  6  7  1  0  0  0  0
  7  8  2  0  0  0  0
  7 10  1  0  0  0  0
  8  9  1  0  0  0  0
  9 28  1  0  0  0  0
 10 15  1  0  0  0  0
 10 29  1  0  0  0  0
 10 30  1  0  0  0  0
 11 12  1  0  0  0  0
 11 13  1  0  0  0  0
 11 31  1  0  0  0  0
 12 32  1  0  0  0  0
 12 33  1  0  0  0  0
 12 34  1  0  0  0  0
 13 14  2  0  0  0  0
 15 16  2  0  0  0  0
 15 20  1  0  0  0  0
 16 17  1  0  0  0  0
 16 35  1  0  0  0  0
 17 18  2  0  0  0  0
 17 21  1  0  0  0  0
 18 19  1  0  0  0  0
 18 23  1  0  0  0  0
 19 20  2  0  0  0  0
 19 36  1  0  0  0  0
 20 37  1  0  0  0  0
 21 22  1  0  0  0  0
 22 38  1  0  0  0  0
 22 39  1  0  0  0  0
 22 40  1  0  0  0  0
 23 24  1  0  0  0  0
 24 41  1  0  0  0  0
 24 42  1  0  0  0  0
 24 43  1  0  0  0  0
M  END
>  <Name>
15

>  <IC50[uM]>
2.5

$$$$
