@<TRIPOS>MOLECULE
16
 38 40 0 0 0
SMALL
GASTEIGER
****
Structure written by MMmdl.
@<TRIPOS>ATOM
      1 C          -6.3886   12.3706  -12.0044 C.ar    1  LIG1        0.0374
      2 C          -6.5217   11.8105  -10.7338 C.ar    1  LIG1       -0.0387
      3 C          -7.7267   10.5778  -13.0331 C.ar    1  LIG1       -0.0356
      4 C          -6.9997   11.7772  -13.1264 C.ar    1  LIG1       -0.0476
      5 C          -7.8245   10.0105  -11.7588 C.ar    1  LIG1        0.0661
      6 C          -7.2447   10.6240  -10.5997 C.ar    1  LIG1        0.0237
      7 C          -7.6157    9.7479   -9.5130 C.ar    1  LIG1        0.0748
      8 N          -8.2818    8.7335   -9.9900 N.ar    1  LIG1       -0.1774
      9 N          -8.4155    8.8614  -11.3010 N.ar    1  LIG1       -0.2767
     10 C          -7.3377    9.8874   -8.0251 C.3     1  LIG1        0.0171
     11 N          -4.4115   13.6449  -11.4457 N.am    1  LIG1       -0.3144
     12 C          -3.4644   14.7678  -11.5034 C.3     1  LIG1        0.0004
     13 C          -5.5490   13.6243  -12.1808 C.2     1  LIG1        0.2439
     14 O          -5.8784   14.5204  -12.9613 O.2     1  LIG1       -0.2702
     15 C          -5.9596   10.4818   -7.7362 C.ar    1  LIG1       -0.0413
     16 C          -5.8460   11.7538   -7.1602 C.ar    1  LIG1       -0.0553
     17 C          -4.5819   12.3007   -6.9160 C.ar    1  LIG1       -0.0502
     18 C          -3.4335   11.5746   -7.2403 C.ar    1  LIG1       -0.0588
     19 C          -3.5461   10.3067   -7.8068 C.ar    1  LIG1       -0.0612
     20 C          -4.8068    9.7600   -8.0558 C.ar    1  LIG1       -0.0582
     21 C          -4.4568   13.6807   -6.3006 C.3     1  LIG1       -0.0397
     22 H          -6.0743   12.2887   -9.8728 H       1  LIG1        0.0632
     23 H          -8.1728   10.1132  -13.9065 H       1  LIG1        0.0639
     24 H          -6.8713   12.2373  -14.0952 H       1  LIG1        0.0626
     25 H          -8.9100    8.1539  -11.8356 H       1  LIG1        0.1889
     26 H          -8.0973   10.5468   -7.6004 H       1  LIG1        0.0377
     27 H          -7.4473    8.9276   -7.5184 H       1  LIG1        0.0377
     28 H          -4.1460   12.8361  -10.8988 H       1  LIG1        0.1487
     29 H          -2.4475   14.4022  -11.3420 H       1  LIG1        0.0426
     30 H          -3.6702   15.4633  -10.6915 H       1  LIG1        0.0426
     31 H          -3.4486   15.3231  -12.4449 H       1  LIG1        0.0426
     32 H          -6.7333   12.3169   -6.9116 H       1  LIG1        0.0623
     33 H          -2.4555   11.9950   -7.0528 H       1  LIG1        0.0620
     34 H          -2.6550    9.7463   -8.0534 H       1  LIG1        0.0618
     35 H          -4.8912    8.7783   -8.5004 H       1  LIG1        0.0620
     36 H          -4.4890   14.4469   -7.0749 H       1  LIG1        0.0278
     37 H          -3.5248   13.7811   -5.7425 H       1  LIG1        0.0278
     38 H          -5.2684   13.8625   -5.5988 H       1  LIG1        0.0278
@<TRIPOS>BOND
     1     1     2   ar
     2     1     4   ar
     3     1    13    1
     4     2     6   ar
     5     2    22    1
     6     3     4   ar
     7     3     5   ar
     8     3    23    1
     9     4    24    1
    10     5     6   ar
    11     5     9   ar
    12     6     7   ar
    13     7     8   ar
    14     7    10    1
    15     8     9   ar
    16     9    25    1
    17    10    15    1
    18    10    26    1
    19    10    27    1
    20    11    12    1
    21    11    13   am
    22    11    28    1
    23    12    29    1
    24    12    30    1
    25    12    31    1
    26    13    14    2
    27    15    16   ar
    28    15    20   ar
    29    16    17   ar
    30    16    32    1
    31    17    18   ar
    32    17    21    1
    33    18    19   ar
    34    18    33    1
    35    19    20   ar
    36    19    34    1
    37    20    35    1
    38    21    36    1
    39    21    37    1
    40    21    38    1
