16
 OpenBabel02152110423D
Structure written by MMmdl.
 38 40  0  0  1  0  0  0  0  0999 V2000
   -6.3886   12.3706  -12.0044 C   0  0  0  0  0  0  0  0  0  0  0  0
   -6.5217   11.8105  -10.7338 C   0  0  0  0  0  0  0  0  0  0  0  0
   -7.7267   10.5778  -13.0331 C   0  0  0  0  0  0  0  0  0  0  0  0
   -6.9997   11.7772  -13.1264 C   0  0  0  0  0  0  0  0  0  0  0  0
   -7.8245   10.0105  -11.7588 C   0  0  0  0  0  0  0  0  0  0  0  0
   -7.2447   10.6240  -10.5997 C   0  0  0  0  0  0  0  0  0  0  0  0
   -7.6157    9.7479   -9.5130 C   0  0  0  0  0  0  0  0  0  0  0  0
   -8.2818    8.7335   -9.9900 N   0  0  0  0  0  0  0  0  0  0  0  0
   -8.4155    8.8614  -11.3010 N   0  0  0  0  0  0  0  0  0  0  0  0
   -7.3377    9.8874   -8.0251 C   0  0  0  0  0  0  0  0  0  0  0  0
   -4.4115   13.6449  -11.4457 N   0  0  0  0  0  0  0  0  0  0  0  0
   -3.4644   14.7678  -11.5034 C   0  0  0  0  0  0  0  0  0  0  0  0
   -5.5490   13.6243  -12.1808 C   0  0  0  0  0  0  0  0  0  0  0  0
   -5.8784   14.5204  -12.9613 O   0  0  0  0  0  0  0  0  0  0  0  0
   -5.9596   10.4818   -7.7362 C   0  0  0  0  0  0  0  0  0  0  0  0
   -5.8460   11.7538   -7.1602 C   0  0  0  0  0  0  0  0  0  0  0  0
   -4.5819   12.3007   -6.9160 C   0  0  0  0  0  0  0  0  0  0  0  0
   -3.4335   11.5746   -7.2403 C   0  0  0  0  0  0  0  0  0  0  0  0
   -3.5461   10.3067   -7.8068 C   0  0  0  0  0  0  0  0  0  0  0  0
   -4.8068    9.7600   -8.0558 C   0  0  0  0  0  0  0  0  0  0  0  0
   -4.4568   13.6807   -6.3006 C   0  0  0  0  0  0  0  0  0  0  0  0
   -6.0743   12.2887   -9.8728 H   0  0  0  0  0  0  0  0  0  0  0  0
   -8.1728   10.1132  -13.9065 H   0  0  0  0  0  0  0  0  0  0  0  0
   -6.8713   12.2373  -14.0952 H   0  0  0  0  0  0  0  0  0  0  0  0
   -8.9100    8.1539  -11.8356 H   0  0  0  0  0  0  0  0  0  0  0  0
   -8.0973   10.5468   -7.6004 H   0  0  0  0  0  0  0  0  0  0  0  0
   -7.4473    8.9276   -7.5184 H   0  0  0  0  0  0  0  0  0  0  0  0
   -4.1460   12.8361  -10.8988 H   0  0  0  0  0  0  0  0  0  0  0  0
   -2.4475   14.4022  -11.3420 H   0  0  0  0  0  0  0  0  0  0  0  0
   -3.6702   15.4633  -10.6915 H   0  0  0  0  0  0  0  0  0  0  0  0
   -3.4486   15.3231  -12.4449 H   0  0  0  0  0  0  0  0  0  0  0  0
   -6.7333   12.3169   -6.9116 H   0  0  0  0  0  0  0  0  0  0  0  0
   -2.4555   11.9950   -7.0528 H   0  0  0  0  0  0  0  0  0  0  0  0
   -2.6550    9.7463   -8.0534 H   0  0  0  0  0  0  0  0  0  0  0  0
   -4.8912    8.7783   -8.5004 H   0  0  0  0  0  0  0  0  0  0  0  0
   -4.4890   14.4469   -7.0749 H   0  0  0  0  0  0  0  0  0  0  0  0
   -3.5248   13.7811   -5.7425 H   0  0  0  0  0  0  0  0  0  0  0  0
   -5.2684   13.8625   -5.5988 H   0  0  0  0  0  0  0  0  0  0  0  0
  1  2  2  0  0  0  0
  1  4  1  0  0  0  0
  1 13  1  0  0  0  0
  2  6  1  0  0  0  0
  2 22  1  0  0  0  0
  3  4  2  0  0  0  0
  3  5  1  0  0  0  0
  3 23  1  0  0  0  0
  4 24  1  0  0  0  0
  5  6  2  0  0  0  0
  5  9  1  0  0  0  0
  6  7  1  0  0  0  0
  7  8  2  0  0  0  0
  7 10  1  0  0  0  0
  8  9  1  0  0  0  0
  9 25  1  0  0  0  0
 10 15  1  0  0  0  0
 10 26  1  0  0  0  0
 10 27  1  0  0  0  0
 11 12  1  0  0  0  0
 11 13  1  0  0  0  0
 11 28  1  0  0  0  0
 12 29  1  0  0  0  0
 12 30  1  0  0  0  0
 12 31  1  0  0  0  0
 13 14  2  0  0  0  0
 15 16  2  0  0  0  0
 15 20  1  0  0  0  0
 16 17  1  0  0  0  0
 16 32  1  0  0  0  0
 17 18  2  0  0  0  0
 17 21  1  0  0  0  0
 18 19  1  0  0  0  0
 18 33  1  0  0  0  0
 19 20  2  0  0  0  0
 19 34  1  0  0  0  0
 20 35  1  0  0  0  0
 21 36  1  0  0  0  0
 21 37  1  0  0  0  0
 21 38  1  0  0  0  0
M  END
>  <Name>
16

>  <IC50[uM]>
0.17

$$$$
