@<TRIPOS>MOLECULE
17
 41 44 0 0 0
SMALL
GASTEIGER
****
Structure written by MMmdl.
@<TRIPOS>ATOM
      1 C          -6.3808   12.3686  -12.0119 C.ar    1  LIG1        0.0374
      2 C          -6.5112   11.8116  -10.7365 C.ar    1  LIG1       -0.0387
      3 C          -7.7301   10.5824  -13.0300 C.ar    1  LIG1       -0.0356
      4 C          -6.9992   11.7782  -13.1263 C.ar    1  LIG1       -0.0476
      5 C          -7.8250   10.0166  -11.7542 C.ar    1  LIG1        0.0661
      6 C          -7.2407   10.6266  -10.6010 C.ar    1  LIG1        0.0237
      7 C          -7.6094    9.7513   -9.5103 C.ar    1  LIG1        0.0748
      8 N          -8.2849    8.7404   -9.9846 N.ar    1  LIG1       -0.1774
      9 N          -8.4192    8.8674  -11.2983 N.ar    1  LIG1       -0.2767
     10 C          -7.3225    9.8872   -8.0242 C.3     1  LIG1        0.0172
     11 N          -4.3834   13.6199  -11.4933 N.am    1  LIG1       -0.3144
     12 C          -3.4237   14.7282  -11.5789 C.3     1  LIG1        0.0004
     13 C          -5.5369   13.6139  -12.1980 C.2     1  LIG1        0.2439
     14 O          -5.8771   14.5161  -12.9653 O.2     1  LIG1       -0.2702
     15 C          -5.9516   10.5005   -7.7272 C.ar    1  LIG1       -0.0395
     16 C          -5.8803   11.7722   -7.1539 C.ar    1  LIG1       -0.0325
     17 C          -4.6129   12.3159   -6.9118 C.ar    1  LIG1        0.0688
     18 C          -3.4418   11.5625   -7.2429 C.ar    1  LIG1        0.0197
     19 C          -3.5059   10.2842   -7.8062 C.ar    1  LIG1       -0.0508
     20 C          -4.7935    9.7780   -8.0417 C.ar    1  LIG1       -0.0575
     21 N          -4.0936   13.5458   -6.3664 N.ar    1  LIG1       -0.2667
     22 N          -2.7885   13.5288   -6.3742 N.ar    1  LIG1       -0.1788
     23 C          -2.3831   12.3683   -6.8823 C.ar    1  LIG1        0.0571
     24 H          -6.0562   12.2861   -9.8790 H       1  LIG1        0.0632
     25 H          -8.1818   10.1228  -13.8979 H       1  LIG1        0.0639
     26 H          -6.8754   12.2375  -14.0963 H       1  LIG1        0.0626
     27 H          -8.9135    8.1599  -11.8328 H       1  LIG1        0.1889
     28 H          -8.0847   10.5486   -7.6052 H       1  LIG1        0.0377
     29 H          -7.4513    8.9399   -7.4976 H       1  LIG1        0.0377
     30 H          -4.1150   12.8057  -10.9566 H       1  LIG1        0.1487
     31 H          -2.8208   14.7394  -10.6724 H       1  LIG1        0.0426
     32 H          -3.8878   15.7111  -11.6718 H       1  LIG1        0.0426
     33 H          -2.7196   14.6037  -12.4046 H       1  LIG1        0.0426
     34 H          -6.7772   12.3192   -6.9132 H       1  LIG1        0.0642
     35 H          -2.6153    9.7128   -8.0447 H       1  LIG1        0.0625
     36 H          -4.8994    8.7979   -8.4799 H       1  LIG1        0.0621
     37 H          -1.3694   12.0252   -7.0275 H       1  LIG1        0.0854
     38 C          -5.0479   14.6272   -5.8866 C.3     1  LIG1        0.0309
     39 H          -4.4767   15.4758   -5.5103 H       1  LIG1        0.0473
     40 H          -5.6764   14.9519   -6.7159 H       1  LIG1        0.0473
     41 H          -5.6761   14.2304   -5.0891 H       1  LIG1        0.0473
@<TRIPOS>BOND
     1     1     2   ar
     2     1     4   ar
     3     1    13    1
     4     2     6   ar
     5     2    24    1
     6     3     4   ar
     7     3     5   ar
     8     3    25    1
     9     4    26    1
    10     5     6   ar
    11     5     9   ar
    12     6     7   ar
    13     7     8   ar
    14     7    10    1
    15     8     9   ar
    16     9    27    1
    17    10    15    1
    18    10    28    1
    19    10    29    1
    20    11    12    1
    21    11    13   am
    22    11    30    1
    23    12    31    1
    24    12    32    1
    25    12    33    1
    26    13    14    2
    27    15    16   ar
    28    15    20   ar
    29    16    17   ar
    30    16    34    1
    31    17    18   ar
    32    17    21   ar
    33    18    19   ar
    34    18    23   ar
    35    19    20   ar
    36    19    35    1
    37    20    36    1
    38    21    22   ar
    39    21    38    1
    40    22    23   ar
    41    23    37    1
    42    38    39    1
    43    38    40    1
    44    38    41    1
