18
 OpenBabel02152110423D
Structure written by MMmdl.
 41 44  0  0  1  0  0  0  0  0999 V2000
   -6.3808   12.3686  -12.0119 C   0  0  0  0  0  0  0  0  0  0  0  0
   -6.5112   11.8116  -10.7365 C   0  0  0  0  0  0  0  0  0  0  0  0
   -7.7301   10.5824  -13.0300 C   0  0  0  0  0  0  0  0  0  0  0  0
   -6.9992   11.7782  -13.1263 C   0  0  0  0  0  0  0  0  0  0  0  0
   -7.8250   10.0166  -11.7542 C   0  0  0  0  0  0  0  0  0  0  0  0
   -7.2407   10.6266  -10.6010 C   0  0  0  0  0  0  0  0  0  0  0  0
   -7.6094    9.7513   -9.5103 C   0  0  0  0  0  0  0  0  0  0  0  0
   -8.2849    8.7404   -9.9846 N   0  0  0  0  0  0  0  0  0  0  0  0
   -8.4192    8.8674  -11.2983 N   0  0  0  0  0  0  0  0  0  0  0  0
   -7.3225    9.8872   -8.0242 C   0  0  0  0  0  0  0  0  0  0  0  0
   -4.3834   13.6199  -11.4933 N   0  0  0  0  0  0  0  0  0  0  0  0
   -3.4237   14.7282  -11.5789 C   0  0  0  0  0  0  0  0  0  0  0  0
   -5.5369   13.6139  -12.1980 C   0  0  0  0  0  0  0  0  0  0  0  0
   -5.8771   14.5161  -12.9653 O   0  0  0  0  0  0  0  0  0  0  0  0
   -5.9516   10.5005   -7.7272 C   0  0  0  0  0  0  0  0  0  0  0  0
   -5.8803   11.7722   -7.1539 C   0  0  0  0  0  0  0  0  0  0  0  0
   -4.6129   12.3159   -6.9118 C   0  0  0  0  0  0  0  0  0  0  0  0
   -3.4418   11.5625   -7.2429 C   0  0  0  0  0  0  0  0  0  0  0  0
   -3.5059   10.2842   -7.8062 C   0  0  0  0  0  0  0  0  0  0  0  0
   -4.7935    9.7780   -8.0417 C   0  0  0  0  0  0  0  0  0  0  0  0
   -4.0936   13.5458   -6.3664 C   0  0  0  0  0  0  0  0  0  0  0  0
   -2.7885   13.5288   -6.3742 N   0  0  0  0  0  0  0  0  0  0  0  0
   -2.3831   12.3683   -6.8823 N   0  0  0  0  0  0  0  0  0  0  0  0
   -0.9539   12.1016   -6.9897 C   0  0  0  0  0  0  0  0  0  0  0  0
   -6.0562   12.2861   -9.8790 H   0  0  0  0  0  0  0  0  0  0  0  0
   -8.1818   10.1228  -13.8979 H   0  0  0  0  0  0  0  0  0  0  0  0
   -6.8754   12.2375  -14.0963 H   0  0  0  0  0  0  0  0  0  0  0  0
   -8.9135    8.1599  -11.8328 H   0  0  0  0  0  0  0  0  0  0  0  0
   -8.0847   10.5486   -7.6052 H   0  0  0  0  0  0  0  0  0  0  0  0
   -7.4513    8.9399   -7.4976 H   0  0  0  0  0  0  0  0  0  0  0  0
   -4.1150   12.8057  -10.9566 H   0  0  0  0  0  0  0  0  0  0  0  0
   -2.8208   14.7394  -10.6724 H   0  0  0  0  0  0  0  0  0  0  0  0
   -3.8878   15.7111  -11.6718 H   0  0  0  0  0  0  0  0  0  0  0  0
   -2.7196   14.6037  -12.4046 H   0  0  0  0  0  0  0  0  0  0  0  0
   -6.7772   12.3192   -6.9132 H   0  0  0  0  0  0  0  0  0  0  0  0
   -2.6153    9.7128   -8.0447 H   0  0  0  0  0  0  0  0  0  0  0  0
   -4.8994    8.7979   -8.4799 H   0  0  0  0  0  0  0  0  0  0  0  0
   -4.6399   14.3943   -5.9889 H   0  0  0  0  0  0  0  0  0  0  0  0
   -0.3748   12.9484   -6.6129 H   0  0  0  0  0  0  0  0  0  0  0  0
   -0.6859   11.9386   -8.0328 H   0  0  0  0  0  0  0  0  0  0  0  0
   -0.7035   11.2217   -6.3964 H   0  0  0  0  0  0  0  0  0  0  0  0
  1  2  2  0  0  0  0
  1  4  1  0  0  0  0
  1 13  1  0  0  0  0
  2  6  1  0  0  0  0
  2 25  1  0  0  0  0
  3  4  2  0  0  0  0
  3  5  1  0  0  0  0
  3 26  1  0  0  0  0
  4 27  1  0  0  0  0
  5  6  2  0  0  0  0
  5  9  1  0  0  0  0
  6  7  1  0  0  0  0
  7  8  2  0  0  0  0
  7 10  1  0  0  0  0
  8  9  1  0  0  0  0
  9 28  1  0  0  0  0
 10 15  1  0  0  0  0
 10 29  1  0  0  0  0
 10 30  1  0  0  0  0
 11 12  1  0  0  0  0
 11 13  1  0  0  0  0
 11 31  1  0  0  0  0
 12 32  1  0  0  0  0
 12 33  1  0  0  0  0
 12 34  1  0  0  0  0
 13 14  2  0  0  0  0
 15 16  2  0  0  0  0
 15 20  1  0  0  0  0
 16 17  1  0  0  0  0
 16 35  1  0  0  0  0
 17 18  2  0  0  0  0
 17 21  1  0  0  0  0
 18 19  1  0  0  0  0
 18 23  1  0  0  0  0
 19 20  2  0  0  0  0
 19 36  1  0  0  0  0
 20 37  1  0  0  0  0
 21 22  2  0  0  0  0
 21 38  1  0  0  0  0
 22 23  1  0  0  0  0
 23 24  1  0  0  0  0
 24 39  1  0  0  0  0
 24 40  1  0  0  0  0
 24 41  1  0  0  0  0
M  END
>  <Name>
18

>  <IC50[uM]>
0.01

$$$$
