@<TRIPOS>MOLECULE
19
 45 48 0 0 0
SMALL
GASTEIGER
****
Structure written by MMmdl.
@<TRIPOS>ATOM
      1 C          -6.3863   12.3686  -12.0106 C.ar    1  LIG1        0.0374
      2 C          -6.5303   11.8179  -10.7351 C.ar    1  LIG1       -0.0387
      3 C          -7.7274   10.5747  -13.0322 C.ar    1  LIG1       -0.0356
      4 C          -6.9939   11.7717  -13.1290 C.ar    1  LIG1       -0.0476
      5 C          -7.8233   10.0108  -11.7572 C.ar    1  LIG1        0.0661
      6 C          -7.2504   10.6246  -10.6026 C.ar    1  LIG1        0.0237
      7 C          -7.6148    9.7488   -9.5126 C.ar    1  LIG1        0.0748
      8 N          -8.2772    8.7301   -9.9866 N.ar    1  LIG1       -0.1774
      9 N          -8.4133    8.8585  -11.2996 N.ar    1  LIG1       -0.2767
     10 C          -7.3367    9.8906   -8.0265 C.3     1  LIG1        0.0171
     11 N          -4.3739   13.6178  -11.5022 N.am    1  LIG1       -0.3144
     12 C          -3.4056   14.7196  -11.5963 C.3     1  LIG1        0.0004
     13 C          -5.5407   13.6198  -12.1903 C.2     1  LIG1        0.2439
     14 O          -5.8948   14.5296  -12.9394 O.2     1  LIG1       -0.2702
     15 C          -5.9610   10.4852   -7.7361 C.ar    1  LIG1       -0.0415
     16 C          -4.8098    9.7648   -8.0558 C.ar    1  LIG1       -0.0576
     17 C          -3.5520   10.3132   -7.8064 C.ar    1  LIG1       -0.0537
     18 C          -3.4430   11.5871   -7.2363 C.ar    1  LIG1       -0.0149
     19 C          -4.5944   12.3027   -6.9144 C.ar    1  LIG1       -0.0537
     20 C          -5.8504   11.7539   -7.1603 C.ar    1  LIG1       -0.0576
     21 C          -2.0991   12.1752   -6.9687 C.ar    1  LIG1        0.0195
     22 C          -1.7663   13.4191   -6.4362 C.ar    1  LIG1        0.0329
     23 N          -0.4291   13.4776   -6.3870 N.ar    1  LIG1       -0.2739
     24 N           0.1723   12.4029   -6.8190 N.ar    1  LIG1       -0.1793
     25 C          -0.8029   11.5945   -7.2007 C.ar    1  LIG1        0.0571
     26 C           0.3904   14.5868   -5.9117 C.3     1  LIG1        0.0302
     27 H          -6.0929   12.2989   -9.8733 H       1  LIG1        0.0632
     28 H          -8.1755   10.1118  -13.9031 H       1  LIG1        0.0639
     29 H          -6.8667   12.2221  -14.1016 H       1  LIG1        0.0626
     30 H          -8.9059    8.1512  -11.8355 H       1  LIG1        0.1889
     31 H          -8.1020   10.5408   -7.5966 H       1  LIG1        0.0377
     32 H          -7.4436    8.9262   -7.5252 H       1  LIG1        0.0377
     33 H          -4.1038   12.8034  -10.9679 H       1  LIG1        0.1487
     34 H          -2.8050   14.7371  -10.6877 H       1  LIG1        0.0426
     35 H          -3.8600   15.7058  -11.7050 H       1  LIG1        0.0426
     36 H          -2.7006   14.5748  -12.4189 H       1  LIG1        0.0426
     37 H          -4.8910    8.7823   -8.5005 H       1  LIG1        0.0621
     38 H          -2.6630    9.7506   -8.0539 H       1  LIG1        0.0624
     39 H          -4.5131   13.2839   -6.4722 H       1  LIG1        0.0624
     40 H          -6.7367   12.3149   -6.9092 H       1  LIG1        0.0621
     41 H          -2.3680   14.2475   -6.0985 H       1  LIG1        0.0832
     42 H          -0.6030   10.6174   -7.6170 H       1  LIG1        0.0854
     43 H          -0.2329   15.4126   -5.5710 H       1  LIG1        0.0473
     44 H           1.0372   14.9418   -6.7159 H       1  LIG1        0.0473
     45 H           1.0194   14.2522   -5.0866 H       1  LIG1        0.0473
@<TRIPOS>BOND
     1     1     2   ar
     2     1     4   ar
     3     1    13    1
     4     2     6   ar
     5     2    27    1
     6     3     4   ar
     7     3     5   ar
     8     3    28    1
     9     4    29    1
    10     5     6   ar
    11     5     9   ar
    12     6     7   ar
    13     7     8   ar
    14     7    10    1
    15     8     9   ar
    16     9    30    1
    17    10    15    1
    18    10    31    1
    19    10    32    1
    20    11    12    1
    21    11    13   am
    22    11    33    1
    23    12    34    1
    24    12    35    1
    25    12    36    1
    26    13    14    2
    27    15    16   ar
    28    15    20   ar
    29    16    17   ar
    30    16    37    1
    31    17    18   ar
    32    17    38    1
    33    18    19   ar
    34    18    21    1
    35    19    20   ar
    36    19    39    1
    37    20    40    1
    38    21    22   ar
    39    21    25   ar
    40    22    23   ar
    41    22    41    1
    42    23    24   ar
    43    23    26    1
    44    24    25   ar
    45    25    42    1
    46    26    43    1
    47    26    44    1
    48    26    45    1
