19
 OpenBabel02152110423D
Structure written by MMmdl.
 45 48  0  0  1  0  0  0  0  0999 V2000
   -6.3863   12.3686  -12.0106 C   0  0  0  0  0  0  0  0  0  0  0  0
   -6.5303   11.8179  -10.7351 C   0  0  0  0  0  0  0  0  0  0  0  0
   -7.7274   10.5747  -13.0322 C   0  0  0  0  0  0  0  0  0  0  0  0
   -6.9939   11.7717  -13.1290 C   0  0  0  0  0  0  0  0  0  0  0  0
   -7.8233   10.0108  -11.7572 C   0  0  0  0  0  0  0  0  0  0  0  0
   -7.2504   10.6246  -10.6026 C   0  0  0  0  0  0  0  0  0  0  0  0
   -7.6148    9.7488   -9.5126 C   0  0  0  0  0  0  0  0  0  0  0  0
   -8.2772    8.7301   -9.9866 N   0  0  0  0  0  0  0  0  0  0  0  0
   -8.4133    8.8585  -11.2996 N   0  0  0  0  0  0  0  0  0  0  0  0
   -7.3367    9.8906   -8.0265 C   0  0  0  0  0  0  0  0  0  0  0  0
   -4.3739   13.6178  -11.5022 N   0  0  0  0  0  0  0  0  0  0  0  0
   -3.4056   14.7196  -11.5963 C   0  0  0  0  0  0  0  0  0  0  0  0
   -5.5407   13.6198  -12.1903 C   0  0  0  0  0  0  0  0  0  0  0  0
   -5.8948   14.5296  -12.9394 O   0  0  0  0  0  0  0  0  0  0  0  0
   -5.9610   10.4852   -7.7361 C   0  0  0  0  0  0  0  0  0  0  0  0
   -4.8098    9.7648   -8.0558 C   0  0  0  0  0  0  0  0  0  0  0  0
   -3.5520   10.3132   -7.8064 C   0  0  0  0  0  0  0  0  0  0  0  0
   -3.4430   11.5871   -7.2363 C   0  0  0  0  0  0  0  0  0  0  0  0
   -4.5944   12.3027   -6.9144 C   0  0  0  0  0  0  0  0  0  0  0  0
   -5.8504   11.7539   -7.1603 C   0  0  0  0  0  0  0  0  0  0  0  0
   -2.0991   12.1752   -6.9687 C   0  0  0  0  0  0  0  0  0  0  0  0
   -1.7663   13.4191   -6.4362 C   0  0  0  0  0  0  0  0  0  0  0  0
   -0.4291   13.4776   -6.3870 N   0  0  0  0  0  0  0  0  0  0  0  0
    0.1723   12.4029   -6.8190 N   0  0  0  0  0  0  0  0  0  0  0  0
   -0.8029   11.5945   -7.2007 C   0  0  0  0  0  0  0  0  0  0  0  0
    0.3904   14.5868   -5.9117 C   0  0  0  0  0  0  0  0  0  0  0  0
   -6.0929   12.2989   -9.8733 H   0  0  0  0  0  0  0  0  0  0  0  0
   -8.1755   10.1118  -13.9031 H   0  0  0  0  0  0  0  0  0  0  0  0
   -6.8667   12.2221  -14.1016 H   0  0  0  0  0  0  0  0  0  0  0  0
   -8.9059    8.1512  -11.8355 H   0  0  0  0  0  0  0  0  0  0  0  0
   -8.1020   10.5408   -7.5966 H   0  0  0  0  0  0  0  0  0  0  0  0
   -7.4436    8.9262   -7.5252 H   0  0  0  0  0  0  0  0  0  0  0  0
   -4.1038   12.8034  -10.9679 H   0  0  0  0  0  0  0  0  0  0  0  0
   -2.8050   14.7371  -10.6877 H   0  0  0  0  0  0  0  0  0  0  0  0
   -3.8600   15.7058  -11.7050 H   0  0  0  0  0  0  0  0  0  0  0  0
   -2.7006   14.5748  -12.4189 H   0  0  0  0  0  0  0  0  0  0  0  0
   -4.8910    8.7823   -8.5005 H   0  0  0  0  0  0  0  0  0  0  0  0
   -2.6630    9.7506   -8.0539 H   0  0  0  0  0  0  0  0  0  0  0  0
   -4.5131   13.2839   -6.4722 H   0  0  0  0  0  0  0  0  0  0  0  0
   -6.7367   12.3149   -6.9092 H   0  0  0  0  0  0  0  0  0  0  0  0
   -2.3680   14.2475   -6.0985 H   0  0  0  0  0  0  0  0  0  0  0  0
   -0.6030   10.6174   -7.6170 H   0  0  0  0  0  0  0  0  0  0  0  0
   -0.2329   15.4126   -5.5710 H   0  0  0  0  0  0  0  0  0  0  0  0
    1.0372   14.9418   -6.7159 H   0  0  0  0  0  0  0  0  0  0  0  0
    1.0194   14.2522   -5.0866 H   0  0  0  0  0  0  0  0  0  0  0  0
  1  2  2  0  0  0  0
  1  4  1  0  0  0  0
  1 13  1  0  0  0  0
  2  6  1  0  0  0  0
  2 27  1  0  0  0  0
  3  4  2  0  0  0  0
  3  5  1  0  0  0  0
  3 28  1  0  0  0  0
  4 29  1  0  0  0  0
  5  6  2  0  0  0  0
  5  9  1  0  0  0  0
  6  7  1  0  0  0  0
  7  8  2  0  0  0  0
  7 10  1  0  0  0  0
  8  9  1  0  0  0  0
  9 30  1  0  0  0  0
 10 15  1  0  0  0  0
 10 31  1  0  0  0  0
 10 32  1  0  0  0  0
 11 12  1  0  0  0  0
 11 13  1  0  0  0  0
 11 33  1  0  0  0  0
 12 34  1  0  0  0  0
 12 35  1  0  0  0  0
 12 36  1  0  0  0  0
 13 14  2  0  0  0  0
 15 16  2  0  0  0  0
 15 20  1  0  0  0  0
 16 17  1  0  0  0  0
 16 37  1  0  0  0  0
 17 18  2  0  0  0  0
 17 38  1  0  0  0  0
 18 19  1  0  0  0  0
 18 21  1  0  0  0  0
 19 20  2  0  0  0  0
 19 39  1  0  0  0  0
 20 40  1  0  0  0  0
 21 22  2  0  0  0  0
 21 25  1  0  0  0  0
 22 23  1  0  0  0  0
 22 41  1  0  0  0  0
 23 24  1  0  0  0  0
 23 26  1  0  0  0  0
 24 25  2  0  0  0  0
 25 42  1  0  0  0  0
 26 43  1  0  0  0  0
 26 44  1  0  0  0  0
 26 45  1  0  0  0  0
M  END
>  <Name>
19

>  <IC50[uM]>
0.015

$$$$
