@<TRIPOS>MOLECULE
20
 55 58 0 0 0
SMALL
GASTEIGER
****
Structure written by MMmdl.
@<TRIPOS>ATOM
      1 C          -6.3740   12.3524  -12.0161 C.ar    1  LIG1        0.0374
      2 C          -6.5100   11.8065  -10.7374 C.ar    1  LIG1       -0.0387
      3 C          -7.7222   10.5841  -13.0265 C.ar    1  LIG1       -0.0356
      4 C          -6.9887   11.7756  -13.1353 C.ar    1  LIG1       -0.0476
      5 C          -7.8163   10.0177  -11.7563 C.ar    1  LIG1        0.0661
      6 C          -7.2425   10.6185  -10.6022 C.ar    1  LIG1        0.0237
      7 C          -7.6172    9.7487   -9.5090 C.ar    1  LIG1        0.0748
      8 N          -8.2846    8.7289   -9.9848 N.ar    1  LIG1       -0.1774
      9 N          -8.4176    8.8659  -11.2967 N.ar    1  LIG1       -0.2767
     10 C          -7.3368    9.8884   -8.0257 C.3     1  LIG1        0.0171
     11 N          -4.4023   13.6480  -11.4578 N.am    1  LIG1       -0.3144
     12 C          -3.4623   14.7747  -11.4948 C.3     1  LIG1        0.0004
     13 C          -5.5331   13.6158  -12.1961 C.2     1  LIG1        0.2439
     14 O          -5.8776   14.5022  -12.9731 O.2     1  LIG1       -0.2702
     15 C          -5.9585   10.4860   -7.7354 C.ar    1  LIG1       -0.0415
     16 C          -5.8494   11.7555   -7.1596 C.ar    1  LIG1       -0.0576
     17 C          -4.5968   12.3068   -6.9148 C.ar    1  LIG1       -0.0537
     18 C          -3.4468   11.5860   -7.2370 C.ar    1  LIG1       -0.0149
     19 C          -3.5513   10.3089   -7.8057 C.ar    1  LIG1       -0.0537
     20 C          -4.8090    9.7654   -8.0523 C.ar    1  LIG1       -0.0576
     21 C          -2.0901   12.1669   -6.9801 C.ar    1  LIG1        0.0196
     22 C          -1.7479   13.4121   -6.4872 C.ar    1  LIG1        0.0333
     23 N          -0.3990   13.4663   -6.4328 N.ar    1  LIG1       -0.2681
     24 N           0.1869   12.3691   -6.8386 N.ar    1  LIG1       -0.1790
     25 C          -0.8034   11.5628   -7.1902 C.ar    1  LIG1        0.0571
     26 C           0.4389   14.5894   -5.9640 C.3     1  LIG1        0.0698
     27 C           1.5042   14.2139   -4.8744 C.3     1  LIG1        0.0799
     28 O           2.6302   13.6295   -5.4977 O.3     1  LIG1       -0.3873
     29 C           0.9501   13.1612   -3.9053 C.3     1  LIG1       -0.0346
     30 C           2.0179   15.4484   -4.1037 C.3     1  LIG1       -0.0346
     31 H          -6.0870   12.2815   -9.8767 H       1  LIG1        0.0632
     32 H          -8.1782   10.1403  -13.8916 H       1  LIG1        0.0639
     33 H          -6.8882   12.2326  -14.1065 H       1  LIG1        0.0626
     34 H          -8.9139    8.1642  -11.8383 H       1  LIG1        0.1889
     35 H          -7.4382    8.9312   -7.5247 H       1  LIG1        0.0377
     36 H          -8.1000   10.5369   -7.5915 H       1  LIG1        0.0377
     37 H          -4.1602   12.8736  -10.8739 H       1  LIG1        0.1487
     38 H          -2.4435   14.3983  -11.3392 H       1  LIG1        0.0426
     39 H          -3.6800   15.4678  -10.6811 H       1  LIG1        0.0426
     40 H          -3.4649   15.3194  -12.4306 H       1  LIG1        0.0426
     41 H          -6.7363   12.3155   -6.9060 H       1  LIG1        0.0621
     42 H          -4.5225   13.2880   -6.4780 H       1  LIG1        0.0624
     43 H          -2.6716    9.7462   -8.0565 H       1  LIG1        0.0624
     44 H          -4.8874    8.7809   -8.4938 H       1  LIG1        0.0621
     45 H          -2.3463   14.2645   -6.1724 H       1  LIG1        0.0832
     46 H          -0.6294   10.5673   -7.5714 H       1  LIG1        0.0854
     47 H          -0.2274   15.3656   -5.5864 H       1  LIG1        0.0537
     48 H           0.9266   15.0143   -6.8422 H       1  LIG1        0.0537
     49 H           3.2101   13.2860   -4.8126 H       1  LIG1        0.2102
     50 H           0.6553   12.2750   -4.4689 H       1  LIG1        0.0258
     51 H           0.0795   13.5454   -3.3665 H       1  LIG1        0.0258
     52 H           1.6833   12.8594   -3.1584 H       1  LIG1        0.0258
     53 H           2.5210   16.1617   -4.7561 H       1  LIG1        0.0258
     54 H           2.7337   15.1648   -3.3313 H       1  LIG1        0.0258
     55 H           1.2023   15.9748   -3.6071 H       1  LIG1        0.0258
@<TRIPOS>BOND
     1     1     2   ar
     2     1     4   ar
     3     1    13    1
     4     2     6   ar
     5     2    31    1
     6     3     4   ar
     7     3     5   ar
     8     3    32    1
     9     4    33    1
    10     5     6   ar
    11     5     9   ar
    12     6     7   ar
    13     7     8   ar
    14     7    10    1
    15     8     9   ar
    16     9    34    1
    17    10    15    1
    18    10    35    1
    19    10    36    1
    20    11    12    1
    21    11    13   am
    22    11    37    1
    23    12    38    1
    24    12    39    1
    25    12    40    1
    26    13    14    2
    27    15    16   ar
    28    15    20   ar
    29    16    17   ar
    30    16    41    1
    31    17    18   ar
    32    17    42    1
    33    18    19   ar
    34    18    21    1
    35    19    20   ar
    36    19    43    1
    37    20    44    1
    38    21    22   ar
    39    21    25   ar
    40    22    23   ar
    41    22    45    1
    42    23    24   ar
    43    23    26    1
    44    24    25   ar
    45    25    46    1
    46    26    27    1
    47    26    47    1
    48    26    48    1
    49    27    28    1
    50    27    29    1
    51    27    30    1
    52    28    49    1
    53    29    50    1
    54    29    51    1
    55    29    52    1
    56    30    53    1
    57    30    54    1
    58    30    55    1
