20
 OpenBabel02152110423D
Structure written by MMmdl.
 55 58  0  0  1  0  0  0  0  0999 V2000
   -6.3740   12.3524  -12.0161 C   0  0  0  0  0  0  0  0  0  0  0  0
   -6.5100   11.8065  -10.7374 C   0  0  0  0  0  0  0  0  0  0  0  0
   -7.7222   10.5841  -13.0265 C   0  0  0  0  0  0  0  0  0  0  0  0
   -6.9887   11.7756  -13.1353 C   0  0  0  0  0  0  0  0  0  0  0  0
   -7.8163   10.0177  -11.7563 C   0  0  0  0  0  0  0  0  0  0  0  0
   -7.2425   10.6185  -10.6022 C   0  0  0  0  0  0  0  0  0  0  0  0
   -7.6172    9.7487   -9.5090 C   0  0  0  0  0  0  0  0  0  0  0  0
   -8.2846    8.7289   -9.9848 N   0  0  0  0  0  0  0  0  0  0  0  0
   -8.4176    8.8659  -11.2967 N   0  0  0  0  0  0  0  0  0  0  0  0
   -7.3368    9.8884   -8.0257 C   0  0  0  0  0  0  0  0  0  0  0  0
   -4.4023   13.6480  -11.4578 N   0  0  0  0  0  0  0  0  0  0  0  0
   -3.4623   14.7747  -11.4948 C   0  0  0  0  0  0  0  0  0  0  0  0
   -5.5331   13.6158  -12.1961 C   0  0  0  0  0  0  0  0  0  0  0  0
   -5.8776   14.5022  -12.9731 O   0  0  0  0  0  0  0  0  0  0  0  0
   -5.9585   10.4860   -7.7354 C   0  0  0  0  0  0  0  0  0  0  0  0
   -5.8494   11.7555   -7.1596 C   0  0  0  0  0  0  0  0  0  0  0  0
   -4.5968   12.3068   -6.9148 C   0  0  0  0  0  0  0  0  0  0  0  0
   -3.4468   11.5860   -7.2370 C   0  0  0  0  0  0  0  0  0  0  0  0
   -3.5513   10.3089   -7.8057 C   0  0  0  0  0  0  0  0  0  0  0  0
   -4.8090    9.7654   -8.0523 C   0  0  0  0  0  0  0  0  0  0  0  0
   -2.0901   12.1669   -6.9801 C   0  0  0  0  0  0  0  0  0  0  0  0
   -1.7479   13.4121   -6.4872 C   0  0  0  0  0  0  0  0  0  0  0  0
   -0.3990   13.4663   -6.4328 N   0  0  0  0  0  0  0  0  0  0  0  0
    0.1869   12.3691   -6.8386 N   0  0  0  0  0  0  0  0  0  0  0  0
   -0.8034   11.5628   -7.1902 C   0  0  0  0  0  0  0  0  0  0  0  0
    0.4389   14.5894   -5.9640 C   0  0  0  0  0  0  0  0  0  0  0  0
    1.5042   14.2139   -4.8744 C   0  0  0  0  0  0  0  0  0  0  0  0
    2.6302   13.6295   -5.4977 O   0  0  0  0  0  0  0  0  0  0  0  0
    0.9501   13.1612   -3.9053 C   0  0  0  0  0  0  0  0  0  0  0  0
    2.0179   15.4484   -4.1037 C   0  0  0  0  0  0  0  0  0  0  0  0
   -6.0870   12.2815   -9.8767 H   0  0  0  0  0  0  0  0  0  0  0  0
   -8.1782   10.1403  -13.8916 H   0  0  0  0  0  0  0  0  0  0  0  0
   -6.8882   12.2326  -14.1065 H   0  0  0  0  0  0  0  0  0  0  0  0
   -8.9139    8.1642  -11.8383 H   0  0  0  0  0  0  0  0  0  0  0  0
   -7.4382    8.9312   -7.5247 H   0  0  0  0  0  0  0  0  0  0  0  0
   -8.1000   10.5369   -7.5915 H   0  0  0  0  0  0  0  0  0  0  0  0
   -4.1602   12.8736  -10.8739 H   0  0  0  0  0  0  0  0  0  0  0  0
   -2.4435   14.3983  -11.3392 H   0  0  0  0  0  0  0  0  0  0  0  0
   -3.6800   15.4678  -10.6811 H   0  0  0  0  0  0  0  0  0  0  0  0
   -3.4649   15.3194  -12.4306 H   0  0  0  0  0  0  0  0  0  0  0  0
   -6.7363   12.3155   -6.9060 H   0  0  0  0  0  0  0  0  0  0  0  0
   -4.5225   13.2880   -6.4780 H   0  0  0  0  0  0  0  0  0  0  0  0
   -2.6716    9.7462   -8.0565 H   0  0  0  0  0  0  0  0  0  0  0  0
   -4.8874    8.7809   -8.4938 H   0  0  0  0  0  0  0  0  0  0  0  0
   -2.3463   14.2645   -6.1724 H   0  0  0  0  0  0  0  0  0  0  0  0
   -0.6294   10.5673   -7.5714 H   0  0  0  0  0  0  0  0  0  0  0  0
   -0.2274   15.3656   -5.5864 H   0  0  0  0  0  0  0  0  0  0  0  0
    0.9266   15.0143   -6.8422 H   0  0  0  0  0  0  0  0  0  0  0  0
    3.2101   13.2860   -4.8126 H   0  0  0  0  0  0  0  0  0  0  0  0
    0.6553   12.2750   -4.4689 H   0  0  0  0  0  0  0  0  0  0  0  0
    0.0795   13.5454   -3.3665 H   0  0  0  0  0  0  0  0  0  0  0  0
    1.6833   12.8594   -3.1584 H   0  0  0  0  0  0  0  0  0  0  0  0
    2.5210   16.1617   -4.7561 H   0  0  0  0  0  0  0  0  0  0  0  0
    2.7337   15.1648   -3.3313 H   0  0  0  0  0  0  0  0  0  0  0  0
    1.2023   15.9748   -3.6071 H   0  0  0  0  0  0  0  0  0  0  0  0
  1  2  2  0  0  0  0
  1  4  1  0  0  0  0
  1 13  1  0  0  0  0
  2  6  1  0  0  0  0
  2 31  1  0  0  0  0
  3  4  2  0  0  0  0
  3  5  1  0  0  0  0
  3 32  1  0  0  0  0
  4 33  1  0  0  0  0
  5  6  2  0  0  0  0
  5  9  1  0  0  0  0
  6  7  1  0  0  0  0
  7  8  2  0  0  0  0
  7 10  1  0  0  0  0
  8  9  1  0  0  0  0
  9 34  1  0  0  0  0
 10 15  1  0  0  0  0
 10 35  1  0  0  0  0
 10 36  1  0  0  0  0
 11 12  1  0  0  0  0
 11 13  1  0  0  0  0
 11 37  1  0  0  0  0
 12 38  1  0  0  0  0
 12 39  1  0  0  0  0
 12 40  1  0  0  0  0
 13 14  2  0  0  0  0
 15 16  2  0  0  0  0
 15 20  1  0  0  0  0
 16 17  1  0  0  0  0
 16 41  1  0  0  0  0
 17 18  2  0  0  0  0
 17 42  1  0  0  0  0
 18 19  1  0  0  0  0
 18 21  1  0  0  0  0
 19 20  2  0  0  0  0
 19 43  1  0  0  0  0
 20 44  1  0  0  0  0
 21 22  2  0  0  0  0
 21 25  1  0  0  0  0
 22 23  1  0  0  0  0
 22 45  1  0  0  0  0
 23 24  1  0  0  0  0
 23 26  1  0  0  0  0
 24 25  2  0  0  0  0
 25 46  1  0  0  0  0
 26 27  1  0  0  0  0
 26 47  1  0  0  0  0
 26 48  1  0  0  0  0
 27 28  1  0  0  0  0
 27 29  1  0  0  0  0
 27 30  1  0  0  0  0
 28 49  1  0  0  0  0
 29 50  1  0  0  0  0
 29 51  1  0  0  0  0
 29 52  1  0  0  0  0
 30 53  1  0  0  0  0
 30 54  1  0  0  0  0
 30 55  1  0  0  0  0
M  END
>  <Name>
20

>  <IC50[uM]>
0.016

$$$$
