21
 OpenBabel02152110423D
Structure written by MMmdl.
 48 52  0  0  1  0  0  0  0  0999 V2000
   -6.3865   12.3338  -12.0432 C   0  0  0  0  0  0  0  0  0  0  0  0
   -6.4856   11.7841  -10.7704 C   0  0  0  0  0  0  0  0  0  0  0  0
   -7.7472   10.5643  -13.0426 C   0  0  0  0  0  0  0  0  0  0  0  0
   -7.0167   11.7500  -13.1460 C   0  0  0  0  0  0  0  0  0  0  0  0
   -7.8303   10.0081  -11.7598 C   0  0  0  0  0  0  0  0  0  0  0  0
   -7.2256   10.6149  -10.6156 C   0  0  0  0  0  0  0  0  0  0  0  0
   -7.6010    9.7518   -9.5145 C   0  0  0  0  0  0  0  0  0  0  0  0
   -8.2842    8.7423   -9.9828 N   0  0  0  0  0  0  0  0  0  0  0  0
   -8.4323    8.8733  -11.2925 N   0  0  0  0  0  0  0  0  0  0  0  0
   -7.3270    9.8938   -8.0225 C   0  0  0  0  0  0  0  0  0  0  0  0
   -5.5587   13.5285  -12.2266 C   0  0  0  0  0  0  0  0  0  0  0  0
   -5.9618   10.4909   -7.7327 C   0  0  0  0  0  0  0  0  0  0  0  0
   -5.8582   11.7635   -7.1652 C   0  0  0  0  0  0  0  0  0  0  0  0
   -4.6045   12.3140   -6.9191 C   0  0  0  0  0  0  0  0  0  0  0  0
   -3.4477   11.5945   -7.2362 C   0  0  0  0  0  0  0  0  0  0  0  0
   -3.5614   10.3184   -7.7958 C   0  0  0  0  0  0  0  0  0  0  0  0
   -4.8112    9.7685   -8.0438 C   0  0  0  0  0  0  0  0  0  0  0  0
   -2.1002   12.1716   -6.9783 C   0  0  0  0  0  0  0  0  0  0  0  0
   -1.7494   13.4275   -6.4902 C   0  0  0  0  0  0  0  0  0  0  0  0
   -0.4141   13.4605   -6.4332 N   0  0  0  0  0  0  0  0  0  0  0  0
    0.1744   12.3664   -6.8143 N   0  0  0  0  0  0  0  0  0  0  0  0
   -0.8092   11.5630   -7.1796 C   0  0  0  0  0  0  0  0  0  0  0  0
    0.4176   14.5730   -6.0003 C   0  0  0  0  0  0  0  0  0  0  0  0
   -4.4279   13.9049  -11.5130 C   0  0  0  0  0  0  0  0  0  0  0  0
   -4.0090   15.0294  -12.0677 N   0  0  0  0  0  0  0  0  0  0  0  0
   -4.8449   15.3445  -13.0534 C   0  0  0  0  0  0  0  0  0  0  0  0
   -5.7816   14.4464  -13.2081 N   0  0  0  0  0  0  0  0  0  0  0  0
   -2.9003   15.7800  -11.6435 C   0  0  0  0  0  0  0  0  0  0  0  0
   -6.0033   12.2571   -9.9302 H   0  0  0  0  0  0  0  0  0  0  0  0
   -8.2085   10.1086  -13.9036 H   0  0  0  0  0  0  0  0  0  0  0  0
   -6.9107   12.2133  -14.1195 H   0  0  0  0  0  0  0  0  0  0  0  0
   -8.9502    8.1807  -11.8157 H   0  0  0  0  0  0  0  0  0  0  0  0
   -7.4150    8.9297   -7.5146 H   0  0  0  0  0  0  0  0  0  0  0  0
   -8.0903   10.5352   -7.5767 H   0  0  0  0  0  0  0  0  0  0  0  0
   -6.7489   12.3218   -6.9239 H   0  0  0  0  0  0  0  0  0  0  0  0
   -4.5244   13.2981   -6.4811 H   0  0  0  0  0  0  0  0  0  0  0  0
   -2.6700    9.7533   -8.0396 H   0  0  0  0  0  0  0  0  0  0  0  0
   -4.8938    8.7844   -8.4823 H   0  0  0  0  0  0  0  0  0  0  0  0
   -2.3367   14.2768   -6.1925 H   0  0  0  0  0  0  0  0  0  0  0  0
   -0.6184   10.5668   -7.5609 H   0  0  0  0  0  0  0  0  0  0  0  0
    1.0791   14.8637   -6.8199 H   0  0  0  0  0  0  0  0  0  0  0  0
    1.0264   14.2592   -5.1502 H   0  0  0  0  0  0  0  0  0  0  0  0
   -0.1971   15.4244   -5.7161 H   0  0  0  0  0  0  0  0  0  0  0  0
   -3.8953   13.4661  -10.6706 H   0  0  0  0  0  0  0  0  0  0  0  0
   -4.6948   16.2656  -13.6196 H   0  0  0  0  0  0  0  0  0  0  0  0
   -3.2685   16.3921  -10.8459 H   0  0  0  0  0  0  0  0  0  0  0  0
   -2.6068   16.4484  -12.4038 H   0  0  0  0  0  0  0  0  0  0  0  0
   -2.0360   15.1571  -11.3689 H   0  0  0  0  0  0  0  0  0  0  0  0
  1  2  2  0  0  0  0
  1  4  1  0  0  0  0
  1 11  1  0  0  0  0
  2  6  1  0  0  0  0
  2 29  1  0  0  0  0
  3  4  2  0  0  0  0
  3  5  1  0  0  0  0
  3 30  1  0  0  0  0
  4 31  1  0  0  0  0
  5  6  2  0  0  0  0
  5  9  1  0  0  0  0
  6  7  1  0  0  0  0
  7  8  2  0  0  0  0
  7 10  1  0  0  0  0
  8  9  1  0  0  0  0
  9 32  1  0  0  0  0
 10 12  1  0  0  0  0
 10 33  1  0  0  0  0
 10 34  1  0  0  0  0
 11 24  2  0  0  0  0
 11 27  1  0  0  0  0
 12 13  2  0  0  0  0
 12 17  1  0  0  0  0
 13 14  1  0  0  0  0
 13 35  1  0  0  0  0
 14 15  2  0  0  0  0
 14 36  1  0  0  0  0
 15 16  1  0  0  0  0
 15 18  1  0  0  0  0
 16 17  2  0  0  0  0
 16 37  1  0  0  0  0
 17 38  1  0  0  0  0
 18 19  2  0  0  0  0
 18 22  1  0  0  0  0
 19 20  1  0  0  0  0
 19 39  1  0  0  0  0
 20 21  1  0  0  0  0
 20 23  1  0  0  0  0
 21 22  2  0  0  0  0
 22 40  1  0  0  0  0
 23 41  1  0  0  0  0
 23 42  1  0  0  0  0
 23 43  1  0  0  0  0
 24 25  1  0  0  0  0
 24 44  1  0  0  0  0
 25 26  1  0  0  0  0
 25 28  1  0  0  0  0
 26 27  2  0  0  0  0
 26 45  1  0  0  0  0
 28 46  1  0  0  0  0
 28 47  1  0  0  0  0
 28 48  1  0  0  0  0
M  END
>  <Name>
21

>  <IC50[uM]>
0.078

$$$$
