@<TRIPOS>MOLECULE
22
 48 52 0 0 0
SMALL
GASTEIGER
****
Structure written by MMmdl.
@<TRIPOS>ATOM
      1 C          -6.3943   12.3306  -11.9839 C.ar    1  LIG1        0.0182
      2 C          -6.5449   11.7624  -10.7224 C.ar    1  LIG1       -0.0401
      3 C          -7.7389   10.5318  -13.0493 C.ar    1  LIG1       -0.0356
      4 C          -6.9892   11.7416  -13.1218 C.ar    1  LIG1       -0.0491
      5 C          -7.8445    9.9757  -11.7834 C.ar    1  LIG1        0.0660
      6 C          -7.2758   10.5697  -10.6136 C.ar    1  LIG1        0.0237
      7 C          -7.6401    9.7111   -9.5254 C.ar    1  LIG1        0.0748
      8 N          -8.3075    8.6850  -10.0132 N.ar    1  LIG1       -0.1774
      9 N          -8.4539    8.8245  -11.3160 N.ar    1  LIG1       -0.2767
     10 C          -7.3472    9.8680   -8.0446 C.3     1  LIG1        0.0171
     11 C          -5.5569   13.6094  -12.1739 C.ar    1  LIG1        0.1405
     12 C          -5.9691   10.4796   -7.7443 C.ar    1  LIG1       -0.0415
     13 C          -5.8622   11.7497   -7.1624 C.ar    1  LIG1       -0.0576
     14 C          -4.6000   12.2988   -6.9070 C.ar    1  LIG1       -0.0537
     15 C          -3.4496   11.5829   -7.2293 C.ar    1  LIG1       -0.0149
     16 C          -3.5554   10.3089   -7.8035 C.ar    1  LIG1       -0.0537
     17 C          -4.8209    9.7667   -8.0554 C.ar    1  LIG1       -0.0576
     18 C          -2.0956   12.1660   -6.9654 C.ar    1  LIG1        0.0195
     19 C          -1.7384   13.4130   -6.4683 C.ar    1  LIG1        0.0329
     20 N          -0.4069   13.4502   -6.4129 N.ar    1  LIG1       -0.2739
     21 N           0.1813   12.3566   -6.8171 N.ar    1  LIG1       -0.1793
     22 C          -0.7988   11.5478   -7.1867 C.ar    1  LIG1        0.0571
     23 C           0.4282   14.5550   -5.9664 C.3     1  LIG1        0.0302
     24 N          -4.7714   14.2106  -11.2027 N.ar    1  LIG1       -0.3335
     25 C          -4.2061   15.2849  -11.7862 C.ar    1  LIG1        0.0243
     26 C          -4.6883   15.3268  -13.0997 C.ar    1  LIG1        0.0461
     27 N          -5.5027   14.2765  -13.3098 N.ar    1  LIG1       -0.2359
     28 C          -4.5364   13.8232   -9.7989 C.3     1  LIG1        0.0133
     29 H          -6.1220   12.1694   -9.8642 H       1  LIG1        0.0632
     30 H          -8.1658   10.0922  -13.9365 H       1  LIG1        0.0639
     31 H          -6.8689   12.2077  -14.0813 H       1  LIG1        0.0625
     32 H          -8.9525    8.1221  -11.8662 H       1  LIG1        0.1889
     33 H          -7.4314    8.9174   -7.5157 H       1  LIG1        0.0377
     34 H          -8.0944   10.5330   -7.6015 H       1  LIG1        0.0377
     35 H          -6.7507   12.3127   -6.9154 H       1  LIG1        0.0621
     36 H          -4.5195   13.2804   -6.4580 H       1  LIG1        0.0624
     37 H          -2.6726    9.7529   -8.0470 H       1  LIG1        0.0624
     38 H          -4.8924    8.7835   -8.5028 H       1  LIG1        0.0621
     39 H          -2.3320   14.2647   -6.1602 H       1  LIG1        0.0832
     40 H          -0.6146   10.5716   -7.5810 H       1  LIG1        0.0854
     41 H           1.0432   14.2275   -5.1327 H       1  LIG1        0.0473
     42 H          -0.1881   15.4011   -5.6571 H       1  LIG1        0.0473
     43 H           1.0785   14.8647   -6.7815 H       1  LIG1        0.0473
     44 H          -3.5385   15.9338  -11.2484 H       1  LIG1        0.0825
     45 H          -4.4386   16.0565  -13.8570 H       1  LIG1        0.0845
     46 H          -4.0519   14.6585   -9.2909 H       1  LIG1        0.0456
     47 H          -3.8437   12.9692   -9.7547 H       1  LIG1        0.0456
     48 H          -5.4214   13.7994   -9.1880 H       1  LIG1        0.0456
@<TRIPOS>BOND
     1     1     2   ar
     2     1     4   ar
     3     1    11    1
     4     2     6   ar
     5     2    29    1
     6     3     4   ar
     7     3     5   ar
     8     3    30    1
     9     4    31    1
    10     5     6   ar
    11     5     9   ar
    12     6     7   ar
    13     7     8   ar
    14     7    10    1
    15     8     9   ar
    16     9    32    1
    17    10    12    1
    18    10    33    1
    19    10    34    1
    20    11    24   ar
    21    11    27   ar
    22    12    13   ar
    23    12    17   ar
    24    13    14   ar
    25    13    35    1
    26    14    15   ar
    27    14    36    1
    28    15    16   ar
    29    15    18    1
    30    16    17   ar
    31    16    37    1
    32    17    38    1
    33    18    19   ar
    34    18    22   ar
    35    19    20   ar
    36    19    39    1
    37    20    21   ar
    38    20    23    1
    39    21    22   ar
    40    22    40    1
    41    23    41    1
    42    23    42    1
    43    23    43    1
    44    24    25   ar
    45    24    28    1
    46    25    26   ar
    47    25    44    1
    48    26    27   ar
    49    26    45    1
    50    28    46    1
    51    28    47    1
    52    28    48    1
