22
 OpenBabel02152110423D
Structure written by MMmdl.
 48 52  0  0  1  0  0  0  0  0999 V2000
   -6.3943   12.3306  -11.9839 C   0  0  0  0  0  0  0  0  0  0  0  0
   -6.5449   11.7624  -10.7224 C   0  0  0  0  0  0  0  0  0  0  0  0
   -7.7389   10.5318  -13.0493 C   0  0  0  0  0  0  0  0  0  0  0  0
   -6.9892   11.7416  -13.1218 C   0  0  0  0  0  0  0  0  0  0  0  0
   -7.8445    9.9757  -11.7834 C   0  0  0  0  0  0  0  0  0  0  0  0
   -7.2758   10.5697  -10.6136 C   0  0  0  0  0  0  0  0  0  0  0  0
   -7.6401    9.7111   -9.5254 C   0  0  0  0  0  0  0  0  0  0  0  0
   -8.3075    8.6850  -10.0132 N   0  0  0  0  0  0  0  0  0  0  0  0
   -8.4539    8.8245  -11.3160 N   0  0  0  0  0  0  0  0  0  0  0  0
   -7.3472    9.8680   -8.0446 C   0  0  0  0  0  0  0  0  0  0  0  0
   -5.5569   13.6094  -12.1739 C   0  0  0  0  0  0  0  0  0  0  0  0
   -5.9691   10.4796   -7.7443 C   0  0  0  0  0  0  0  0  0  0  0  0
   -5.8622   11.7497   -7.1624 C   0  0  0  0  0  0  0  0  0  0  0  0
   -4.6000   12.2988   -6.9070 C   0  0  0  0  0  0  0  0  0  0  0  0
   -3.4496   11.5829   -7.2293 C   0  0  0  0  0  0  0  0  0  0  0  0
   -3.5554   10.3089   -7.8035 C   0  0  0  0  0  0  0  0  0  0  0  0
   -4.8209    9.7667   -8.0554 C   0  0  0  0  0  0  0  0  0  0  0  0
   -2.0956   12.1660   -6.9654 C   0  0  0  0  0  0  0  0  0  0  0  0
   -1.7384   13.4130   -6.4683 C   0  0  0  0  0  0  0  0  0  0  0  0
   -0.4069   13.4502   -6.4129 N   0  0  0  0  0  0  0  0  0  0  0  0
    0.1813   12.3566   -6.8171 N   0  0  0  0  0  0  0  0  0  0  0  0
   -0.7988   11.5478   -7.1867 C   0  0  0  0  0  0  0  0  0  0  0  0
    0.4282   14.5550   -5.9664 C   0  0  0  0  0  0  0  0  0  0  0  0
   -4.7714   14.2106  -11.2027 N   0  0  0  0  0  0  0  0  0  0  0  0
   -4.2061   15.2849  -11.7862 C   0  0  0  0  0  0  0  0  0  0  0  0
   -4.6883   15.3268  -13.0997 C   0  0  0  0  0  0  0  0  0  0  0  0
   -5.5027   14.2765  -13.3098 N   0  0  0  0  0  0  0  0  0  0  0  0
   -4.5364   13.8232   -9.7989 C   0  0  0  0  0  0  0  0  0  0  0  0
   -6.1220   12.1694   -9.8642 H   0  0  0  0  0  0  0  0  0  0  0  0
   -8.1658   10.0922  -13.9365 H   0  0  0  0  0  0  0  0  0  0  0  0
   -6.8689   12.2077  -14.0813 H   0  0  0  0  0  0  0  0  0  0  0  0
   -8.9525    8.1221  -11.8662 H   0  0  0  0  0  0  0  0  0  0  0  0
   -7.4314    8.9174   -7.5157 H   0  0  0  0  0  0  0  0  0  0  0  0
   -8.0944   10.5330   -7.6015 H   0  0  0  0  0  0  0  0  0  0  0  0
   -6.7507   12.3127   -6.9154 H   0  0  0  0  0  0  0  0  0  0  0  0
   -4.5195   13.2804   -6.4580 H   0  0  0  0  0  0  0  0  0  0  0  0
   -2.6726    9.7529   -8.0470 H   0  0  0  0  0  0  0  0  0  0  0  0
   -4.8924    8.7835   -8.5028 H   0  0  0  0  0  0  0  0  0  0  0  0
   -2.3320   14.2647   -6.1602 H   0  0  0  0  0  0  0  0  0  0  0  0
   -0.6146   10.5716   -7.5810 H   0  0  0  0  0  0  0  0  0  0  0  0
    1.0432   14.2275   -5.1327 H   0  0  0  0  0  0  0  0  0  0  0  0
   -0.1881   15.4011   -5.6571 H   0  0  0  0  0  0  0  0  0  0  0  0
    1.0785   14.8647   -6.7815 H   0  0  0  0  0  0  0  0  0  0  0  0
   -3.5385   15.9338  -11.2484 H   0  0  0  0  0  0  0  0  0  0  0  0
   -4.4386   16.0565  -13.8570 H   0  0  0  0  0  0  0  0  0  0  0  0
   -4.0519   14.6585   -9.2909 H   0  0  0  0  0  0  0  0  0  0  0  0
   -3.8437   12.9692   -9.7547 H   0  0  0  0  0  0  0  0  0  0  0  0
   -5.4214   13.7994   -9.1880 H   0  0  0  0  0  0  0  0  0  0  0  0
  1  2  2  0  0  0  0
  1  4  1  0  0  0  0
  1 11  1  0  0  0  0
  2  6  1  0  0  0  0
  2 29  1  0  0  0  0
  3  4  2  0  0  0  0
  3  5  1  0  0  0  0
  3 30  1  0  0  0  0
  4 31  1  0  0  0  0
  5  6  2  0  0  0  0
  5  9  1  0  0  0  0
  6  7  1  0  0  0  0
  7  8  2  0  0  0  0
  7 10  1  0  0  0  0
  8  9  1  0  0  0  0
  9 32  1  0  0  0  0
 10 12  1  0  0  0  0
 10 33  1  0  0  0  0
 10 34  1  0  0  0  0
 11 24  1  0  0  0  0
 11 27  2  0  0  0  0
 12 13  2  0  0  0  0
 12 17  1  0  0  0  0
 13 14  1  0  0  0  0
 13 35  1  0  0  0  0
 14 15  2  0  0  0  0
 14 36  1  0  0  0  0
 15 16  1  0  0  0  0
 15 18  1  0  0  0  0
 16 17  2  0  0  0  0
 16 37  1  0  0  0  0
 17 38  1  0  0  0  0
 18 19  2  0  0  0  0
 18 22  1  0  0  0  0
 19 20  1  0  0  0  0
 19 39  1  0  0  0  0
 20 21  1  0  0  0  0
 20 23  1  0  0  0  0
 21 22  2  0  0  0  0
 22 40  1  0  0  0  0
 23 41  1  0  0  0  0
 23 42  1  0  0  0  0
 23 43  1  0  0  0  0
 24 25  1  0  0  0  0
 24 28  1  0  0  0  0
 25 26  2  0  0  0  0
 25 44  1  0  0  0  0
 26 27  1  0  0  0  0
 26 45  1  0  0  0  0
 28 46  1  0  0  0  0
 28 47  1  0  0  0  0
 28 48  1  0  0  0  0
M  END
>  <Name>
22

>  <IC50[uM]>
0.032

$$$$
