@<TRIPOS>MOLECULE
23
 49 53 0 0 0
SMALL
GASTEIGER
****
Structure written by MMmdl.
@<TRIPOS>ATOM
      1 C          -6.3775   12.3296  -12.0018 C.ar    1  LIG1        0.0011
      2 C          -6.5098   11.7629  -10.7403 C.ar    1  LIG1       -0.0416
      3 C          -7.7247   10.5660  -13.0266 C.ar    1  LIG1       -0.0357
      4 C          -6.9942   11.7487  -13.1193 C.ar    1  LIG1       -0.0505
      5 C          -7.8312   10.0057  -11.7538 C.ar    1  LIG1        0.0660
      6 C          -7.2443   10.6021  -10.6070 C.ar    1  LIG1        0.0236
      7 C          -7.6167    9.7449   -9.5151 C.ar    1  LIG1        0.0748
      8 N          -8.2961    8.7374   -9.9786 N.ar    1  LIG1       -0.1774
      9 N          -8.4404    8.8724  -11.2937 N.ar    1  LIG1       -0.2767
     10 C          -7.3318    9.8946   -8.0252 C.3     1  LIG1        0.0171
     11 C          -5.5478   13.5112  -12.1572 C.ar    1  LIG1        0.0727
     12 C          -5.9707   10.4870   -7.7351 C.ar    1  LIG1       -0.0415
     13 C          -5.8642   11.7588   -7.1694 C.ar    1  LIG1       -0.0576
     14 C          -4.6019   12.3141   -6.9186 C.ar    1  LIG1       -0.0537
     15 C          -3.4503   11.5963   -7.2357 C.ar    1  LIG1       -0.0149
     16 C          -3.5604   10.3220   -7.8000 C.ar    1  LIG1       -0.0537
     17 C          -4.8213    9.7719   -8.0443 C.ar    1  LIG1       -0.0576
     18 C          -2.0996   12.1710   -6.9757 C.ar    1  LIG1        0.0195
     19 C          -1.7487   13.4240   -6.4767 C.ar    1  LIG1        0.0329
     20 N          -0.4123   13.4674   -6.4260 N.ar    1  LIG1       -0.2739
     21 N           0.1713   12.3664   -6.8217 N.ar    1  LIG1       -0.1793
     22 C          -0.8093   11.5624   -7.1930 C.ar    1  LIG1        0.0571
     23 C           0.4224   14.5657   -5.9816 C.3     1  LIG1        0.0302
     24 N          -5.6966   14.2423  -13.2612 N.ar    1  LIG1       -0.2549
     25 C          -4.9506   15.3153  -13.5405 C.ar    1  LIG1        0.0300
     26 C          -3.9383   15.6899  -12.6782 C.ar    1  LIG1       -0.0229
     27 C          -3.7261   14.9536  -11.5366 C.ar    1  LIG1        0.0280
     28 C          -4.5508   13.8769  -11.2437 C.ar    1  LIG1       -0.0150
     29 N          -2.6976   15.2614  -10.7139 N.pl3   1  LIG1       -0.3579
     30 H          -6.0413   12.2163   -9.8757 H       1  LIG1        0.0631
     31 H          -8.1733   10.1082  -13.8992 H       1  LIG1        0.0639
     32 H          -6.8809   12.2018  -14.0912 H       1  LIG1        0.0625
     33 H          -8.9536    8.1815  -11.8284 H       1  LIG1        0.1889
     34 H          -7.4130    8.9234   -7.5092 H       1  LIG1        0.0377
     35 H          -8.0893   10.5342   -7.5733 H       1  LIG1        0.0377
     36 H          -6.7528   12.3249   -6.9255 H       1  LIG1        0.0621
     37 H          -4.5328   13.2988   -6.4768 H       1  LIG1        0.0624
     38 H          -2.6748    9.7543   -8.0412 H       1  LIG1        0.0624
     39 H          -4.8926    8.7851   -8.4839 H       1  LIG1        0.0621
     40 H          -2.3413   14.2681   -6.1710 H       1  LIG1        0.0832
     41 H          -0.6174   10.5819   -7.5829 H       1  LIG1        0.0854
     42 H           1.0693   14.8635   -6.8057 H       1  LIG1        0.0473
     43 H           1.0251   14.2426   -5.1445 H       1  LIG1        0.0473
     44 H          -0.2033   15.4153   -5.6884 H       1  LIG1        0.0473
     45 H          -5.1686   15.8110  -14.4274 H       1  LIG1        0.0830
     46 H          -3.3134   16.5389  -12.9221 H       1  LIG1        0.0651
     47 H          -4.3780   13.3123  -10.3528 H       1  LIG1        0.0657
     48 H          -2.6917   14.8692   -9.7891 H       1  LIG1        0.1423
     49 H          -2.2693   16.1577  -10.8793 H       1  LIG1        0.1423
@<TRIPOS>BOND
     1     1     2   ar
     2     1     4   ar
     3     1    11    1
     4     2     6   ar
     5     2    30    1
     6     3     4   ar
     7     3     5   ar
     8     3    31    1
     9     4    32    1
    10     5     6   ar
    11     5     9   ar
    12     6     7   ar
    13     7     8   ar
    14     7    10    1
    15     8     9   ar
    16     9    33    1
    17    10    12    1
    18    10    34    1
    19    10    35    1
    20    11    24   ar
    21    11    28   ar
    22    12    13   ar
    23    12    17   ar
    24    13    14   ar
    25    13    36    1
    26    14    15   ar
    27    14    37    1
    28    15    16   ar
    29    15    18    1
    30    16    17   ar
    31    16    38    1
    32    17    39    1
    33    18    19   ar
    34    18    22   ar
    35    19    20   ar
    36    19    40    1
    37    20    21   ar
    38    20    23    1
    39    21    22   ar
    40    22    41    1
    41    23    42    1
    42    23    43    1
    43    23    44    1
    44    24    25   ar
    45    25    26   ar
    46    25    45    1
    47    26    27   ar
    48    26    46    1
    49    27    28   ar
    50    27    29    1
    51    28    47    1
    52    29    48    1
    53    29    49    1
