23
 OpenBabel02152110423D
Structure written by MMmdl.
 49 53  0  0  1  0  0  0  0  0999 V2000
   -6.3775   12.3296  -12.0018 C   0  0  0  0  0  0  0  0  0  0  0  0
   -6.5098   11.7629  -10.7403 C   0  0  0  0  0  0  0  0  0  0  0  0
   -7.7247   10.5660  -13.0266 C   0  0  0  0  0  0  0  0  0  0  0  0
   -6.9942   11.7487  -13.1193 C   0  0  0  0  0  0  0  0  0  0  0  0
   -7.8312   10.0057  -11.7538 C   0  0  0  0  0  0  0  0  0  0  0  0
   -7.2443   10.6021  -10.6070 C   0  0  0  0  0  0  0  0  0  0  0  0
   -7.6167    9.7449   -9.5151 C   0  0  0  0  0  0  0  0  0  0  0  0
   -8.2961    8.7374   -9.9786 N   0  0  0  0  0  0  0  0  0  0  0  0
   -8.4404    8.8724  -11.2937 N   0  0  0  0  0  0  0  0  0  0  0  0
   -7.3318    9.8946   -8.0252 C   0  0  0  0  0  0  0  0  0  0  0  0
   -5.5478   13.5112  -12.1572 C   0  0  0  0  0  0  0  0  0  0  0  0
   -5.9707   10.4870   -7.7351 C   0  0  0  0  0  0  0  0  0  0  0  0
   -5.8642   11.7588   -7.1694 C   0  0  0  0  0  0  0  0  0  0  0  0
   -4.6019   12.3141   -6.9186 C   0  0  0  0  0  0  0  0  0  0  0  0
   -3.4503   11.5963   -7.2357 C   0  0  0  0  0  0  0  0  0  0  0  0
   -3.5604   10.3220   -7.8000 C   0  0  0  0  0  0  0  0  0  0  0  0
   -4.8213    9.7719   -8.0443 C   0  0  0  0  0  0  0  0  0  0  0  0
   -2.0996   12.1710   -6.9757 C   0  0  0  0  0  0  0  0  0  0  0  0
   -1.7487   13.4240   -6.4767 C   0  0  0  0  0  0  0  0  0  0  0  0
   -0.4123   13.4674   -6.4260 N   0  0  0  0  0  0  0  0  0  0  0  0
    0.1713   12.3664   -6.8217 N   0  0  0  0  0  0  0  0  0  0  0  0
   -0.8093   11.5624   -7.1930 C   0  0  0  0  0  0  0  0  0  0  0  0
    0.4224   14.5657   -5.9816 C   0  0  0  0  0  0  0  0  0  0  0  0
   -5.6966   14.2423  -13.2612 N   0  0  0  0  0  0  0  0  0  0  0  0
   -4.9506   15.3153  -13.5405 C   0  0  0  0  0  0  0  0  0  0  0  0
   -3.9383   15.6899  -12.6782 C   0  0  0  0  0  0  0  0  0  0  0  0
   -3.7261   14.9536  -11.5366 C   0  0  0  0  0  0  0  0  0  0  0  0
   -4.5508   13.8769  -11.2437 C   0  0  0  0  0  0  0  0  0  0  0  0
   -2.6976   15.2614  -10.7139 N   0  0  0  0  0  0  0  0  0  0  0  0
   -6.0413   12.2163   -9.8757 H   0  0  0  0  0  0  0  0  0  0  0  0
   -8.1733   10.1082  -13.8992 H   0  0  0  0  0  0  0  0  0  0  0  0
   -6.8809   12.2018  -14.0912 H   0  0  0  0  0  0  0  0  0  0  0  0
   -8.9536    8.1815  -11.8284 H   0  0  0  0  0  0  0  0  0  0  0  0
   -7.4130    8.9234   -7.5092 H   0  0  0  0  0  0  0  0  0  0  0  0
   -8.0893   10.5342   -7.5733 H   0  0  0  0  0  0  0  0  0  0  0  0
   -6.7528   12.3249   -6.9255 H   0  0  0  0  0  0  0  0  0  0  0  0
   -4.5328   13.2988   -6.4768 H   0  0  0  0  0  0  0  0  0  0  0  0
   -2.6748    9.7543   -8.0412 H   0  0  0  0  0  0  0  0  0  0  0  0
   -4.8926    8.7851   -8.4839 H   0  0  0  0  0  0  0  0  0  0  0  0
   -2.3413   14.2681   -6.1710 H   0  0  0  0  0  0  0  0  0  0  0  0
   -0.6174   10.5819   -7.5829 H   0  0  0  0  0  0  0  0  0  0  0  0
    1.0693   14.8635   -6.8057 H   0  0  0  0  0  0  0  0  0  0  0  0
    1.0251   14.2426   -5.1445 H   0  0  0  0  0  0  0  0  0  0  0  0
   -0.2033   15.4153   -5.6884 H   0  0  0  0  0  0  0  0  0  0  0  0
   -5.1686   15.8110  -14.4274 H   0  0  0  0  0  0  0  0  0  0  0  0
   -3.3134   16.5389  -12.9221 H   0  0  0  0  0  0  0  0  0  0  0  0
   -4.3780   13.3123  -10.3528 H   0  0  0  0  0  0  0  0  0  0  0  0
   -2.6917   14.8692   -9.7891 H   0  0  0  0  0  0  0  0  0  0  0  0
   -2.2693   16.1577  -10.8793 H   0  0  0  0  0  0  0  0  0  0  0  0
  1  2  2  0  0  0  0
  1  4  1  0  0  0  0
  1 11  1  0  0  0  0
  2  6  1  0  0  0  0
  2 30  1  0  0  0  0
  3  4  2  0  0  0  0
  3  5  1  0  0  0  0
  3 31  1  0  0  0  0
  4 32  1  0  0  0  0
  5  6  2  0  0  0  0
  5  9  1  0  0  0  0
  6  7  1  0  0  0  0
  7  8  2  0  0  0  0
  7 10  1  0  0  0  0
  8  9  1  0  0  0  0
  9 33  1  0  0  0  0
 10 12  1  0  0  0  0
 10 34  1  0  0  0  0
 10 35  1  0  0  0  0
 11 24  2  0  0  0  0
 11 28  1  0  0  0  0
 12 13  2  0  0  0  0
 12 17  1  0  0  0  0
 13 14  1  0  0  0  0
 13 36  1  0  0  0  0
 14 15  2  0  0  0  0
 14 37  1  0  0  0  0
 15 16  1  0  0  0  0
 15 18  1  0  0  0  0
 16 17  2  0  0  0  0
 16 38  1  0  0  0  0
 17 39  1  0  0  0  0
 18 19  2  0  0  0  0
 18 22  1  0  0  0  0
 19 20  1  0  0  0  0
 19 40  1  0  0  0  0
 20 21  1  0  0  0  0
 20 23  1  0  0  0  0
 21 22  2  0  0  0  0
 22 41  1  0  0  0  0
 23 42  1  0  0  0  0
 23 43  1  0  0  0  0
 23 44  1  0  0  0  0
 24 25  1  0  0  0  0
 25 26  2  0  0  0  0
 25 45  1  0  0  0  0
 26 27  1  0  0  0  0
 26 46  1  0  0  0  0
 27 28  2  0  0  0  0
 27 29  1  0  0  0  0
 28 47  1  0  0  0  0
 29 48  1  0  0  0  0
 29 49  1  0  0  0  0
M  END
>  <Name>
23

>  <IC50[uM]>
0.27

$$$$
