24
 OpenBabel02152110423D
Structure written by MMmdl.
 45 48  0  0  1  0  0  0  0  0999 V2000
   -6.3515   12.3530  -11.9813 C   0  0  0  0  0  0  0  0  0  0  0  0
   -6.5085   11.7912  -10.7247 C   0  0  0  0  0  0  0  0  0  0  0  0
   -7.6802   10.5716  -13.0438 C   0  0  0  0  0  0  0  0  0  0  0  0
   -6.9296   11.7657  -13.1245 C   0  0  0  0  0  0  0  0  0  0  0  0
   -7.7980   10.0044  -11.7669 C   0  0  0  0  0  0  0  0  0  0  0  0
   -7.2328   10.6109  -10.5989 C   0  0  0  0  0  0  0  0  0  0  0  0
   -7.6209    9.7375   -9.5162 C   0  0  0  0  0  0  0  0  0  0  0  0
   -8.2754    8.7446   -9.9970 N   0  0  0  0  0  0  0  0  0  0  0  0
   -8.4233    8.8800  -11.3218 N   0  0  0  0  0  0  0  0  0  0  0  0
   -7.3328    9.8812   -8.0296 C   0  0  0  0  0  0  0  0  0  0  0  0
   -5.3004   14.2773  -13.1499 C   0  0  0  0  0  0  0  0  0  0  0  0
   -4.4346   15.5261  -12.8998 C   0  0  0  0  0  0  0  0  0  0  0  0
   -5.5896   13.5586  -12.0343 N   0  0  0  0  0  0  0  0  0  0  0  0
   -5.9706   10.4906   -7.7317 C   0  0  0  0  0  0  0  0  0  0  0  0
   -5.8616   11.7632   -7.1684 C   0  0  0  0  0  0  0  0  0  0  0  0
   -4.6051   12.3126   -6.9180 C   0  0  0  0  0  0  0  0  0  0  0  0
   -3.4544   11.5948   -7.2294 C   0  0  0  0  0  0  0  0  0  0  0  0
   -3.5626   10.3128   -7.8011 C   0  0  0  0  0  0  0  0  0  0  0  0
   -4.8160    9.7710   -8.0425 C   0  0  0  0  0  0  0  0  0  0  0  0
   -2.1083   12.1736   -6.9694 C   0  0  0  0  0  0  0  0  0  0  0  0
   -1.7503   13.4247   -6.4858 C   0  0  0  0  0  0  0  0  0  0  0  0
   -0.4131   13.4674   -6.4189 N   0  0  0  0  0  0  0  0  0  0  0  0
    0.1758   12.3735   -6.8057 N   0  0  0  0  0  0  0  0  0  0  0  0
   -0.8094   11.5620   -7.1791 C   0  0  0  0  0  0  0  0  0  0  0  0
    0.4060   14.5705   -5.9896 C   0  0  0  0  0  0  0  0  0  0  0  0
   -5.6528   14.0066  -14.2746 O   0  0  0  0  0  0  0  0  0  0  0  0
   -6.0624   12.2581   -9.8612 H   0  0  0  0  0  0  0  0  0  0  0  0
   -8.1172   10.1173  -13.9162 H   0  0  0  0  0  0  0  0  0  0  0  0
   -6.8256   12.2012  -14.0958 H   0  0  0  0  0  0  0  0  0  0  0  0
   -8.9432    8.1901  -11.8473 H   0  0  0  0  0  0  0  0  0  0  0  0
   -8.0986   10.5389   -7.5828 H   0  0  0  0  0  0  0  0  0  0  0  0
   -7.4252    8.9299   -7.5158 H   0  0  0  0  0  0  0  0  0  0  0  0
   -4.1820   15.6085  -11.8419 H   0  0  0  0  0  0  0  0  0  0  0  0
   -4.9911   16.4102  -13.1903 H   0  0  0  0  0  0  0  0  0  0  0  0
   -3.4935   15.4841  -13.4268 H   0  0  0  0  0  0  0  0  0  0  0  0
   -5.2195   13.8866  -11.1438 H   0  0  0  0  0  0  0  0  0  0  0  0
   -6.7535   12.3213   -6.9230 H   0  0  0  0  0  0  0  0  0  0  0  0
   -4.5307   13.2966   -6.4786 H   0  0  0  0  0  0  0  0  0  0  0  0
   -2.6732    9.7534   -8.0369 H   0  0  0  0  0  0  0  0  0  0  0  0
   -4.8952    8.7834   -8.4850 H   0  0  0  0  0  0  0  0  0  0  0  0
   -2.3455   14.2746   -6.1808 H   0  0  0  0  0  0  0  0  0  0  0  0
   -0.6187   10.5735   -7.5589 H   0  0  0  0  0  0  0  0  0  0  0  0
   -0.2064   15.4259   -5.7003 H   0  0  0  0  0  0  0  0  0  0  0  0
    1.0748   14.8695   -6.8055 H   0  0  0  0  0  0  0  0  0  0  0  0
    1.0202   14.2589   -5.1325 H   0  0  0  0  0  0  0  0  0  0  0  0
  1  2  2  0  0  0  0
  1  4  1  0  0  0  0
  1 13  1  0  0  0  0
  2  6  1  0  0  0  0
  2 27  1  0  0  0  0
  3  4  2  0  0  0  0
  3  5  1  0  0  0  0
  3 28  1  0  0  0  0
  4 29  1  0  0  0  0
  5  6  2  0  0  0  0
  5  9  1  0  0  0  0
  6  7  1  0  0  0  0
  7  8  2  0  0  0  0
  7 10  1  0  0  0  0
  8  9  1  0  0  0  0
  9 30  1  0  0  0  0
 10 14  1  0  0  0  0
 10 31  1  0  0  0  0
 10 32  1  0  0  0  0
 11 12  1  0  0  0  0
 11 13  1  0  0  0  0
 11 26  2  0  0  0  0
 12 33  1  0  0  0  0
 12 34  1  0  0  0  0
 12 35  1  0  0  0  0
 13 36  1  0  0  0  0
 14 15  2  0  0  0  0
 14 19  1  0  0  0  0
 15 16  1  0  0  0  0
 15 37  1  0  0  0  0
 16 17  2  0  0  0  0
 16 38  1  0  0  0  0
 17 18  1  0  0  0  0
 17 20  1  0  0  0  0
 18 19  2  0  0  0  0
 18 39  1  0  0  0  0
 19 40  1  0  0  0  0
 20 21  2  0  0  0  0
 20 24  1  0  0  0  0
 21 22  1  0  0  0  0
 21 41  1  0  0  0  0
 22 23  1  0  0  0  0
 22 25  1  0  0  0  0
 23 24  2  0  0  0  0
 24 42  1  0  0  0  0
 25 43  1  0  0  0  0
 25 44  1  0  0  0  0
 25 45  1  0  0  0  0
M  END
>  <Name>
24

>  <IC50[uM]>
0.029

$$$$
