@<TRIPOS>MOLECULE
25
 46 49 0 0 0
SMALL
GASTEIGER
****
Structure written by MMmdl.
@<TRIPOS>ATOM
      1 C          -6.3861   12.3623  -11.9697 C.ar    1  LIG1        0.0484
      2 C          -6.5480   11.8020  -10.7080 C.ar    1  LIG1       -0.0284
      3 C          -7.6869   10.5726  -13.0325 C.ar    1  LIG1       -0.0345
      4 C          -6.9529   11.7665  -13.1047 C.ar    1  LIG1       -0.0373
      5 C          -7.8210   10.0086  -11.7556 C.ar    1  LIG1        0.0661
      6 C          -7.2636   10.6177  -10.5919 C.ar    1  LIG1        0.0248
      7 C          -7.6330    9.7421   -9.5104 C.ar    1  LIG1        0.0748
      8 N          -8.3023    8.7332   -9.9897 N.ar    1  LIG1       -0.1774
      9 N          -8.4342    8.8678  -11.3051 N.ar    1  LIG1       -0.2767
     10 C          -7.3415    9.8758   -8.0215 C.3     1  LIG1        0.0171
     11 S          -4.1211   13.8754  -11.2000 S.O2    1  LIG1        0.0403
     12 C          -2.9188   12.5402  -11.7675 C.3     1  LIG1        0.0736
     13 N          -5.6382   13.5428  -12.1051 N.pl3   1  LIG1       -0.2209
     14 C          -5.9683   10.4827   -7.7344 C.ar    1  LIG1       -0.0415
     15 C          -4.8123    9.7690   -8.0490 C.ar    1  LIG1       -0.0576
     16 C          -3.5592   10.3237   -7.7969 C.ar    1  LIG1       -0.0537
     17 C          -3.4543   11.5962   -7.2288 C.ar    1  LIG1       -0.0149
     18 C          -4.6126   12.3085   -6.9084 C.ar    1  LIG1       -0.0537
     19 C          -5.8671   11.7538   -7.1613 C.ar    1  LIG1       -0.0576
     20 C          -2.1058   12.1871   -6.9644 C.ar    1  LIG1        0.0195
     21 C          -1.7745   13.4406   -6.4637 C.ar    1  LIG1        0.0329
     22 N          -0.4394   13.4976   -6.4041 N.ar    1  LIG1       -0.2739
     23 N           0.1691   12.4146   -6.8015 N.ar    1  LIG1       -0.1793
     24 C          -0.8034   11.5995   -7.1773 C.ar    1  LIG1        0.0571
     25 C           0.3694   14.6144   -5.9538 C.3     1  LIG1        0.0302
     26 O          -3.6497   15.1720  -11.6865 O.2     1  LIG1       -0.1555
     27 O          -4.3650   13.6745   -9.7698 O.2     1  LIG1       -0.1555
     28 H          -6.1192   12.2649   -9.8433 H       1  LIG1        0.0644
     29 H          -8.1122   10.1144  -13.9155 H       1  LIG1        0.0639
     30 H          -6.8144   12.2368  -14.0685 H       1  LIG1        0.0637
     31 H          -8.9325    8.1663  -11.8458 H       1  LIG1        0.1889
     32 H          -7.4236    8.9164   -7.5059 H       1  LIG1        0.0377
     33 H          -8.0908   10.5346   -7.5820 H       1  LIG1        0.0377
     34 H          -1.9692   12.6827  -11.2486 H       1  LIG1        0.0482
     35 H          -2.7669   12.6240  -12.8324 H       1  LIG1        0.0482
     36 H          -3.3306   11.5652  -11.5235 H       1  LIG1        0.0482
     37 H          -5.9058   14.2159  -12.8076 H       1  LIG1        0.1733
     38 H          -4.8881    8.7864   -8.4918 H       1  LIG1        0.0621
     39 H          -2.6674    9.7660   -8.0419 H       1  LIG1        0.0624
     40 H          -4.5385   13.2901   -6.4661 H       1  LIG1        0.0624
     41 H          -6.7582   12.3115   -6.9184 H       1  LIG1        0.0621
     42 H          -2.3766   14.2799   -6.1559 H       1  LIG1        0.0832
     43 H          -0.5994   10.6146   -7.5758 H       1  LIG1        0.0854
     44 H           0.9849   14.2943   -5.1133 H       1  LIG1        0.0473
     45 H          -0.2624   15.4490   -5.6481 H       1  LIG1        0.0473
     46 H           1.0212   14.9347   -6.7673 H       1  LIG1        0.0473
@<TRIPOS>BOND
     1     1     2   ar
     2     1     4   ar
     3     1    13    1
     4     2     6   ar
     5     2    28    1
     6     3     4   ar
     7     3     5   ar
     8     3    29    1
     9     4    30    1
    10     5     6   ar
    11     5     9   ar
    12     6     7   ar
    13     7     8   ar
    14     7    10    1
    15     8     9   ar
    16     9    31    1
    17    10    14    1
    18    10    32    1
    19    10    33    1
    20    11    12    1
    21    11    13    1
    22    11    26    2
    23    11    27    2
    24    12    34    1
    25    12    35    1
    26    12    36    1
    27    13    37    1
    28    14    15   ar
    29    14    19   ar
    30    15    16   ar
    31    15    38    1
    32    16    17   ar
    33    16    39    1
    34    17    18   ar
    35    17    20    1
    36    18    19   ar
    37    18    40    1
    38    19    41    1
    39    20    21   ar
    40    20    24   ar
    41    21    22   ar
    42    21    42    1
    43    22    23   ar
    44    22    25    1
    45    23    24   ar
    46    24    43    1
    47    25    44    1
    48    25    45    1
    49    25    46    1
