25
 OpenBabel02152110423D
Structure written by MMmdl.
 46 49  0  0  1  0  0  0  0  0999 V2000
   -6.3861   12.3623  -11.9697 C   0  0  0  0  0  0  0  0  0  0  0  0
   -6.5480   11.8020  -10.7080 C   0  0  0  0  0  0  0  0  0  0  0  0
   -7.6869   10.5726  -13.0325 C   0  0  0  0  0  0  0  0  0  0  0  0
   -6.9529   11.7665  -13.1047 C   0  0  0  0  0  0  0  0  0  0  0  0
   -7.8210   10.0086  -11.7556 C   0  0  0  0  0  0  0  0  0  0  0  0
   -7.2636   10.6177  -10.5919 C   0  0  0  0  0  0  0  0  0  0  0  0
   -7.6330    9.7421   -9.5104 C   0  0  0  0  0  0  0  0  0  0  0  0
   -8.3023    8.7332   -9.9897 N   0  0  0  0  0  0  0  0  0  0  0  0
   -8.4342    8.8678  -11.3051 N   0  0  0  0  0  0  0  0  0  0  0  0
   -7.3415    9.8758   -8.0215 C   0  0  0  0  0  0  0  0  0  0  0  0
   -4.1211   13.8754  -11.2000 S   0  0  0  0  0  0  0  0  0  0  0  0
   -2.9188   12.5402  -11.7675 C   0  0  0  0  0  0  0  0  0  0  0  0
   -5.6382   13.5428  -12.1051 N   0  0  0  0  0  0  0  0  0  0  0  0
   -5.9683   10.4827   -7.7344 C   0  0  0  0  0  0  0  0  0  0  0  0
   -4.8123    9.7690   -8.0490 C   0  0  0  0  0  0  0  0  0  0  0  0
   -3.5592   10.3237   -7.7969 C   0  0  0  0  0  0  0  0  0  0  0  0
   -3.4543   11.5962   -7.2288 C   0  0  0  0  0  0  0  0  0  0  0  0
   -4.6126   12.3085   -6.9084 C   0  0  0  0  0  0  0  0  0  0  0  0
   -5.8671   11.7538   -7.1613 C   0  0  0  0  0  0  0  0  0  0  0  0
   -2.1058   12.1871   -6.9644 C   0  0  0  0  0  0  0  0  0  0  0  0
   -1.7745   13.4406   -6.4637 C   0  0  0  0  0  0  0  0  0  0  0  0
   -0.4394   13.4976   -6.4041 N   0  0  0  0  0  0  0  0  0  0  0  0
    0.1691   12.4146   -6.8015 N   0  0  0  0  0  0  0  0  0  0  0  0
   -0.8034   11.5995   -7.1773 C   0  0  0  0  0  0  0  0  0  0  0  0
    0.3694   14.6144   -5.9538 C   0  0  0  0  0  0  0  0  0  0  0  0
   -3.6497   15.1720  -11.6865 O   0  0  0  0  0  0  0  0  0  0  0  0
   -4.3650   13.6745   -9.7698 O   0  0  0  0  0  0  0  0  0  0  0  0
   -6.1192   12.2649   -9.8433 H   0  0  0  0  0  0  0  0  0  0  0  0
   -8.1122   10.1144  -13.9155 H   0  0  0  0  0  0  0  0  0  0  0  0
   -6.8144   12.2368  -14.0685 H   0  0  0  0  0  0  0  0  0  0  0  0
   -8.9325    8.1663  -11.8458 H   0  0  0  0  0  0  0  0  0  0  0  0
   -7.4236    8.9164   -7.5059 H   0  0  0  0  0  0  0  0  0  0  0  0
   -8.0908   10.5346   -7.5820 H   0  0  0  0  0  0  0  0  0  0  0  0
   -1.9692   12.6827  -11.2486 H   0  0  0  0  0  0  0  0  0  0  0  0
   -2.7669   12.6240  -12.8324 H   0  0  0  0  0  0  0  0  0  0  0  0
   -3.3306   11.5652  -11.5235 H   0  0  0  0  0  0  0  0  0  0  0  0
   -5.9058   14.2159  -12.8076 H   0  0  0  0  0  0  0  0  0  0  0  0
   -4.8881    8.7864   -8.4918 H   0  0  0  0  0  0  0  0  0  0  0  0
   -2.6674    9.7660   -8.0419 H   0  0  0  0  0  0  0  0  0  0  0  0
   -4.5385   13.2901   -6.4661 H   0  0  0  0  0  0  0  0  0  0  0  0
   -6.7582   12.3115   -6.9184 H   0  0  0  0  0  0  0  0  0  0  0  0
   -2.3766   14.2799   -6.1559 H   0  0  0  0  0  0  0  0  0  0  0  0
   -0.5994   10.6146   -7.5758 H   0  0  0  0  0  0  0  0  0  0  0  0
    0.9849   14.2943   -5.1133 H   0  0  0  0  0  0  0  0  0  0  0  0
   -0.2624   15.4490   -5.6481 H   0  0  0  0  0  0  0  0  0  0  0  0
    1.0212   14.9347   -6.7673 H   0  0  0  0  0  0  0  0  0  0  0  0
  1  2  2  0  0  0  0
  1  4  1  0  0  0  0
  1 13  1  0  0  0  0
  2  6  1  0  0  0  0
  2 28  1  0  0  0  0
  3  4  2  0  0  0  0
  3  5  1  0  0  0  0
  3 29  1  0  0  0  0
  4 30  1  0  0  0  0
  5  6  2  0  0  0  0
  5  9  1  0  0  0  0
  6  7  1  0  0  0  0
  7  8  2  0  0  0  0
  7 10  1  0  0  0  0
  8  9  1  0  0  0  0
  9 31  1  0  0  0  0
 10 14  1  0  0  0  0
 10 32  1  0  0  0  0
 10 33  1  0  0  0  0
 11 12  1  0  0  0  0
 11 13  1  0  0  0  0
 11 26  2  0  0  0  0
 11 27  2  0  0  0  0
 12 34  1  0  0  0  0
 12 35  1  0  0  0  0
 12 36  1  0  0  0  0
 13 37  1  0  0  0  0
 14 15  2  0  0  0  0
 14 19  1  0  0  0  0
 15 16  1  0  0  0  0
 15 38  1  0  0  0  0
 16 17  2  0  0  0  0
 16 39  1  0  0  0  0
 17 18  1  0  0  0  0
 17 20  1  0  0  0  0
 18 19  2  0  0  0  0
 18 40  1  0  0  0  0
 19 41  1  0  0  0  0
 20 21  2  0  0  0  0
 20 24  1  0  0  0  0
 21 22  1  0  0  0  0
 21 42  1  0  0  0  0
 22 23  1  0  0  0  0
 22 25  1  0  0  0  0
 23 24  2  0  0  0  0
 24 43  1  0  0  0  0
 25 44  1  0  0  0  0
 25 45  1  0  0  0  0
 25 46  1  0  0  0  0
M  END
>  <Name>
25

>  <IC50[uM]>
0.073

$$$$
