@<TRIPOS>MOLECULE
26
 49 53 0 0 0
SMALL
GASTEIGER
****
Structure written by MMmdl.
@<TRIPOS>ATOM
      1 C          -6.3961   12.3155  -12.0234 C.ar    1  LIG1        0.0370
      2 C          -6.5478   11.7864  -10.7392 C.ar    1  LIG1       -0.0293
      3 C          -7.7431   10.5278  -13.0269 C.ar    1  LIG1       -0.0345
      4 C          -7.0034   11.6993  -13.1368 C.ar    1  LIG1       -0.0382
      5 C          -7.8411    9.9886  -11.7443 C.ar    1  LIG1        0.0661
      6 C          -7.2672   10.6062  -10.5986 C.ar    1  LIG1        0.0247
      7 C          -7.6276    9.7408   -9.5022 C.ar    1  LIG1        0.0748
      8 N          -8.2893    8.7195   -9.9713 N.ar    1  LIG1       -0.1774
      9 N          -8.4361    8.8492  -11.2847 N.ar    1  LIG1       -0.2767
     10 C          -7.3404    9.8857   -8.0208 C.3     1  LIG1        0.0171
     11 C          -5.4704   14.2158  -13.3316 C.2     1  LIG1        0.2198
     12 C          -4.5218   15.3458  -13.0035 C.3     1  LIG1        0.0259
     13 N          -5.5814   13.4696  -12.1774 N.am    1  LIG1       -0.2714
     14 C          -5.9630   10.4847   -7.7359 C.ar    1  LIG1       -0.0415
     15 C          -5.8538   11.7563   -7.1621 C.ar    1  LIG1       -0.0576
     16 C          -4.5953   12.3060   -6.9160 C.ar    1  LIG1       -0.0537
     17 C          -3.4449   11.5852   -7.2379 C.ar    1  LIG1       -0.0149
     18 C          -3.5560   10.3115   -7.8043 C.ar    1  LIG1       -0.0537
     19 C          -4.8130    9.7655   -8.0531 C.ar    1  LIG1       -0.0576
     20 C          -2.0905   12.1634   -6.9778 C.ar    1  LIG1        0.0195
     21 C          -1.7398   13.4211   -6.5005 C.ar    1  LIG1        0.0329
     22 N          -0.4007   13.4556   -6.4362 N.ar    1  LIG1       -0.2739
     23 N           0.1858   12.3500   -6.8082 N.ar    1  LIG1       -0.1793
     24 C          -0.8018   11.5473   -7.1675 C.ar    1  LIG1        0.0571
     25 C           0.4333   14.5672   -6.0053 C.3     1  LIG1        0.0302
     26 O          -6.0131   14.0330  -14.4162 O.2     1  LIG1       -0.2753
     27 C          -4.6790   13.9767  -11.1295 C.3     1  LIG1        0.0202
     28 C          -4.0830   15.2556  -11.5883 C.3     1  LIG1       -0.0285
     29 H          -6.0962   12.2658   -9.8826 H       1  LIG1        0.0643
     30 H          -8.1870   10.0577  -13.8855 H       1  LIG1        0.0639
     31 H          -6.8795   12.1118  -14.1147 H       1  LIG1        0.0637
     32 H          -8.9222    8.1396  -11.8208 H       1  LIG1        0.1889
     33 H          -8.0988   10.5399   -7.5898 H       1  LIG1        0.0377
     34 H          -7.4364    8.9228   -7.5168 H       1  LIG1        0.0377
     35 H          -4.9540   16.3099  -13.2674 H       1  LIG1        0.0359
     36 H          -3.6823   15.2203  -13.6539 H       1  LIG1        0.0359
     37 H          -6.7414   12.3166   -6.9126 H       1  LIG1        0.0621
     38 H          -4.5135   13.2868   -6.4745 H       1  LIG1        0.0624
     39 H          -2.6700    9.7492   -8.0515 H       1  LIG1        0.0624
     40 H          -4.8944    8.7825   -8.4962 H       1  LIG1        0.0621
     41 H          -2.3279   14.2814   -6.2111 H       1  LIG1        0.0832
     42 H          -0.6186   10.5482   -7.5365 H       1  LIG1        0.0854
     43 H           1.0982   14.8611   -6.8185 H       1  LIG1        0.0473
     44 H           1.0414   14.2576   -5.1551 H       1  LIG1        0.0473
     45 H          -0.1781   15.4224   -5.7186 H       1  LIG1        0.0473
     46 H          -5.1658   14.0954  -10.1642 H       1  LIG1        0.0469
     47 H          -3.8858   13.2419  -10.9644 H       1  LIG1        0.0469
     48 H          -2.9931   15.3118  -11.4698 H       1  LIG1        0.0285
     49 H          -4.5445   16.0482  -11.0233 H       1  LIG1        0.0285
@<TRIPOS>BOND
     1     1     2   ar
     2     1     4   ar
     3     1    13    1
     4     2     6   ar
     5     2    29    1
     6     3     4   ar
     7     3     5   ar
     8     3    30    1
     9     4    31    1
    10     5     6   ar
    11     5     9   ar
    12     6     7   ar
    13     7     8   ar
    14     7    10    1
    15     8     9   ar
    16     9    32    1
    17    10    14    1
    18    10    33    1
    19    10    34    1
    20    11    12    1
    21    11    13   am
    22    11    26    2
    23    12    28    1
    24    12    35    1
    25    12    36    1
    26    13    27    1
    27    14    15   ar
    28    14    19   ar
    29    15    16   ar
    30    15    37    1
    31    16    17   ar
    32    16    38    1
    33    17    18   ar
    34    17    20    1
    35    18    19   ar
    36    18    39    1
    37    19    40    1
    38    20    21   ar
    39    20    24   ar
    40    21    22   ar
    41    21    41    1
    42    22    23   ar
    43    22    25    1
    44    23    24   ar
    45    24    42    1
    46    25    43    1
    47    25    44    1
    48    25    45    1
    49    27    28    1
    50    27    46    1
    51    27    47    1
    52    28    48    1
    53    28    49    1
