26
 OpenBabel02152110423D
Structure written by MMmdl.
 49 53  0  0  1  0  0  0  0  0999 V2000
   -6.3961   12.3155  -12.0234 C   0  0  0  0  0  0  0  0  0  0  0  0
   -6.5478   11.7864  -10.7392 C   0  0  0  0  0  0  0  0  0  0  0  0
   -7.7431   10.5278  -13.0269 C   0  0  0  0  0  0  0  0  0  0  0  0
   -7.0034   11.6993  -13.1368 C   0  0  0  0  0  0  0  0  0  0  0  0
   -7.8411    9.9886  -11.7443 C   0  0  0  0  0  0  0  0  0  0  0  0
   -7.2672   10.6062  -10.5986 C   0  0  0  0  0  0  0  0  0  0  0  0
   -7.6276    9.7408   -9.5022 C   0  0  0  0  0  0  0  0  0  0  0  0
   -8.2893    8.7195   -9.9713 N   0  0  0  0  0  0  0  0  0  0  0  0
   -8.4361    8.8492  -11.2847 N   0  0  0  0  0  0  0  0  0  0  0  0
   -7.3404    9.8857   -8.0208 C   0  0  0  0  0  0  0  0  0  0  0  0
   -5.4704   14.2158  -13.3316 C   0  0  0  0  0  0  0  0  0  0  0  0
   -4.5218   15.3458  -13.0035 C   0  0  0  0  0  0  0  0  0  0  0  0
   -5.5814   13.4696  -12.1774 N   0  0  0  0  0  0  0  0  0  0  0  0
   -5.9630   10.4847   -7.7359 C   0  0  0  0  0  0  0  0  0  0  0  0
   -5.8538   11.7563   -7.1621 C   0  0  0  0  0  0  0  0  0  0  0  0
   -4.5953   12.3060   -6.9160 C   0  0  0  0  0  0  0  0  0  0  0  0
   -3.4449   11.5852   -7.2379 C   0  0  0  0  0  0  0  0  0  0  0  0
   -3.5560   10.3115   -7.8043 C   0  0  0  0  0  0  0  0  0  0  0  0
   -4.8130    9.7655   -8.0531 C   0  0  0  0  0  0  0  0  0  0  0  0
   -2.0905   12.1634   -6.9778 C   0  0  0  0  0  0  0  0  0  0  0  0
   -1.7398   13.4211   -6.5005 C   0  0  0  0  0  0  0  0  0  0  0  0
   -0.4007   13.4556   -6.4362 N   0  0  0  0  0  0  0  0  0  0  0  0
    0.1858   12.3500   -6.8082 N   0  0  0  0  0  0  0  0  0  0  0  0
   -0.8018   11.5473   -7.1675 C   0  0  0  0  0  0  0  0  0  0  0  0
    0.4333   14.5672   -6.0053 C   0  0  0  0  0  0  0  0  0  0  0  0
   -6.0131   14.0330  -14.4162 O   0  0  0  0  0  0  0  0  0  0  0  0
   -4.6790   13.9767  -11.1295 C   0  0  0  0  0  0  0  0  0  0  0  0
   -4.0830   15.2556  -11.5883 C   0  0  0  0  0  0  0  0  0  0  0  0
   -6.0962   12.2658   -9.8826 H   0  0  0  0  0  0  0  0  0  0  0  0
   -8.1870   10.0577  -13.8855 H   0  0  0  0  0  0  0  0  0  0  0  0
   -6.8795   12.1118  -14.1147 H   0  0  0  0  0  0  0  0  0  0  0  0
   -8.9222    8.1396  -11.8208 H   0  0  0  0  0  0  0  0  0  0  0  0
   -8.0988   10.5399   -7.5898 H   0  0  0  0  0  0  0  0  0  0  0  0
   -7.4364    8.9228   -7.5168 H   0  0  0  0  0  0  0  0  0  0  0  0
   -4.9540   16.3099  -13.2674 H   0  0  0  0  0  0  0  0  0  0  0  0
   -3.6823   15.2203  -13.6539 H   0  0  0  0  0  0  0  0  0  0  0  0
   -6.7414   12.3166   -6.9126 H   0  0  0  0  0  0  0  0  0  0  0  0
   -4.5135   13.2868   -6.4745 H   0  0  0  0  0  0  0  0  0  0  0  0
   -2.6700    9.7492   -8.0515 H   0  0  0  0  0  0  0  0  0  0  0  0
   -4.8944    8.7825   -8.4962 H   0  0  0  0  0  0  0  0  0  0  0  0
   -2.3279   14.2814   -6.2111 H   0  0  0  0  0  0  0  0  0  0  0  0
   -0.6186   10.5482   -7.5365 H   0  0  0  0  0  0  0  0  0  0  0  0
    1.0982   14.8611   -6.8185 H   0  0  0  0  0  0  0  0  0  0  0  0
    1.0414   14.2576   -5.1551 H   0  0  0  0  0  0  0  0  0  0  0  0
   -0.1781   15.4224   -5.7186 H   0  0  0  0  0  0  0  0  0  0  0  0
   -5.1658   14.0954  -10.1642 H   0  0  0  0  0  0  0  0  0  0  0  0
   -3.8858   13.2419  -10.9644 H   0  0  0  0  0  0  0  0  0  0  0  0
   -2.9931   15.3118  -11.4698 H   0  0  0  0  0  0  0  0  0  0  0  0
   -4.5445   16.0482  -11.0233 H   0  0  0  0  0  0  0  0  0  0  0  0
  1  2  2  0  0  0  0
  1  4  1  0  0  0  0
  1 13  1  0  0  0  0
  2  6  1  0  0  0  0
  2 29  1  0  0  0  0
  3  4  2  0  0  0  0
  3  5  1  0  0  0  0
  3 30  1  0  0  0  0
  4 31  1  0  0  0  0
  5  6  2  0  0  0  0
  5  9  1  0  0  0  0
  6  7  1  0  0  0  0
  7  8  2  0  0  0  0
  7 10  1  0  0  0  0
  8  9  1  0  0  0  0
  9 32  1  0  0  0  0
 10 14  1  0  0  0  0
 10 33  1  0  0  0  0
 10 34  1  0  0  0  0
 11 12  1  0  0  0  0
 11 13  1  0  0  0  0
 11 26  2  0  0  0  0
 12 28  1  0  0  0  0
 12 35  1  0  0  0  0
 12 36  1  0  0  0  0
 13 27  1  0  0  0  0
 14 15  2  0  0  0  0
 14 19  1  0  0  0  0
 15 16  1  0  0  0  0
 15 37  1  0  0  0  0
 16 17  2  0  0  0  0
 16 38  1  0  0  0  0
 17 18  1  0  0  0  0
 17 20  1  0  0  0  0
 18 19  2  0  0  0  0
 18 39  1  0  0  0  0
 19 40  1  0  0  0  0
 20 21  2  0  0  0  0
 20 24  1  0  0  0  0
 21 22  1  0  0  0  0
 21 41  1  0  0  0  0
 22 23  1  0  0  0  0
 22 25  1  0  0  0  0
 23 24  2  0  0  0  0
 24 42  1  0  0  0  0
 25 43  1  0  0  0  0
 25 44  1  0  0  0  0
 25 45  1  0  0  0  0
 27 28  1  0  0  0  0
 27 46  1  0  0  0  0
 27 47  1  0  0  0  0
 28 48  1  0  0  0  0
 28 49  1  0  0  0  0
M  END
>  <Name>
26

>  <IC50[uM]>
0.036

$$$$
