27
 OpenBabel02152110423D
Structure written by MMmdl.
 53 56  0  0  1  0  0  0  0  0999 V2000
   -6.3855   12.3606  -12.0031 C   0  0  0  0  0  0  0  0  0  0  0  0
   -6.5214   11.8004  -10.7171 C   0  0  0  0  0  0  0  0  0  0  0  0
   -7.6991   10.5797  -13.0384 C   0  0  0  0  0  0  0  0  0  0  0  0
   -6.9626   11.7779  -13.1031 C   0  0  0  0  0  0  0  0  0  0  0  0
   -7.8238   10.0198  -11.7523 C   0  0  0  0  0  0  0  0  0  0  0  0
   -7.2557   10.6213  -10.5956 C   0  0  0  0  0  0  0  0  0  0  0  0
   -7.6268    9.7501   -9.5073 C   0  0  0  0  0  0  0  0  0  0  0  0
   -8.3057    8.7491   -9.9816 N   0  0  0  0  0  0  0  0  0  0  0  0
   -8.4330    8.8776  -11.2917 N   0  0  0  0  0  0  0  0  0  0  0  0
   -7.3352    9.8817   -8.0196 C   0  0  0  0  0  0  0  0  0  0  0  0
   -5.6205   13.5372  -12.2095 N   0  0  0  0  0  0  0  0  0  0  0  0
   -5.9727   10.4835   -7.7324 C   0  0  0  0  0  0  0  0  0  0  0  0
   -5.8611   11.7523   -7.1657 C   0  0  0  0  0  0  0  0  0  0  0  0
   -4.5946   12.2988   -6.9068 C   0  0  0  0  0  0  0  0  0  0  0  0
   -3.4432   11.5806   -7.2147 C   0  0  0  0  0  0  0  0  0  0  0  0
   -3.5570   10.3109   -7.7899 C   0  0  0  0  0  0  0  0  0  0  0  0
   -4.8253    9.7663   -8.0483 C   0  0  0  0  0  0  0  0  0  0  0  0
   -2.0926   12.1556   -6.9444 C   0  0  0  0  0  0  0  0  0  0  0  0
   -1.7338   13.4204   -6.4594 C   0  0  0  0  0  0  0  0  0  0  0  0
   -0.4064   13.4584   -6.4114 N   0  0  0  0  0  0  0  0  0  0  0  0
    0.1793   12.3493   -6.7865 N   0  0  0  0  0  0  0  0  0  0  0  0
   -0.7954   11.5387   -7.1512 C   0  0  0  0  0  0  0  0  0  0  0  0
    0.4205   14.5767   -6.0073 C   0  0  0  0  0  0  0  0  0  0  0  0
   -4.6894   13.8945  -11.1046 C   0  0  0  0  0  0  0  0  0  0  0  0
   -3.7822   15.1171  -11.3990 C   0  0  0  0  0  0  0  0  0  0  0  0
   -2.3310   14.9579  -11.2532 N   0  0  0  0  0  0  0  0  0  0  0  0
   -1.8099   14.4326  -10.1320 C   0  0  0  0  0  0  0  0  0  0  0  0
   -2.5019   14.0442   -9.2076 O   0  0  0  0  0  0  0  0  0  0  0  0
   -0.2869   14.3494  -10.0364 C   0  0  0  0  0  0  0  0  0  0  0  0
   -6.0445   12.2494   -9.8378 H   0  0  0  0  0  0  0  0  0  0  0  0
   -8.1252   10.1075  -13.9125 H   0  0  0  0  0  0  0  0  0  0  0  0
   -6.8195   12.2403  -14.0555 H   0  0  0  0  0  0  0  0  0  0  0  0
   -8.9253    8.1691  -11.8449 H   0  0  0  0  0  0  0  0  0  0  0  0
   -8.0887   10.5401   -7.5861 H   0  0  0  0  0  0  0  0  0  0  0  0
   -7.4260    8.9087   -7.5002 H   0  0  0  0  0  0  0  0  0  0  0  0
   -5.3500   13.7423  -13.1711 H   0  0  0  0  0  0  0  0  0  0  0  0
   -6.7538   12.3208   -6.9277 H   0  0  0  0  0  0  0  0  0  0  0  0
   -4.5110   13.2853   -6.4615 H   0  0  0  0  0  0  0  0  0  0  0  0
   -2.6704    9.7539   -8.0335 H   0  0  0  0  0  0  0  0  0  0  0  0
   -4.8995    8.7870   -8.4986 H   0  0  0  0  0  0  0  0  0  0  0  0
   -2.3188   14.2725   -6.1705 H   0  0  0  0  0  0  0  0  0  0  0  0
   -0.5952   10.5614   -7.5429 H   0  0  0  0  0  0  0  0  0  0  0  0
   -0.1976   15.4335   -5.7330 H   0  0  0  0  0  0  0  0  0  0  0  0
    1.0772   14.8589   -6.8237 H   0  0  0  0  0  0  0  0  0  0  0  0
    1.0239   14.2765   -5.1673 H   0  0  0  0  0  0  0  0  0  0  0  0
   -4.0839   13.0222  -10.9241 H   0  0  0  0  0  0  0  0  0  0  0  0
   -5.1507   14.0138  -10.1183 H   0  0  0  0  0  0  0  0  0  0  0  0
   -4.1427   15.9632  -10.8055 H   0  0  0  0  0  0  0  0  0  0  0  0
   -3.9117   15.4187  -12.3919 H   0  0  0  0  0  0  0  0  0  0  0  0
   -1.7181   15.3243  -11.9869 H   0  0  0  0  0  0  0  0  0  0  0  0
    0.1612   14.8056  -10.9074 H   0  0  0  0  0  0  0  0  0  0  0  0
    0.0542   13.3103   -9.9607 H   0  0  0  0  0  0  0  0  0  0  0  0
    0.0768   14.8908   -9.1541 H   0  0  0  0  0  0  0  0  0  0  0  0
  1  2  2  0  0  0  0
  1  4  1  0  0  0  0
  1 11  1  0  0  0  0
  2  6  1  0  0  0  0
  2 30  1  0  0  0  0
  3  4  2  0  0  0  0
  3  5  1  0  0  0  0
  3 31  1  0  0  0  0
  4 32  1  0  0  0  0
  5  6  2  0  0  0  0
  5  9  1  0  0  0  0
  6  7  1  0  0  0  0
  7  8  2  0  0  0  0
  7 10  1  0  0  0  0
  8  9  1  0  0  0  0
  9 33  1  0  0  0  0
 10 12  1  0  0  0  0
 10 34  1  0  0  0  0
 10 35  1  0  0  0  0
 11 24  1  0  0  0  0
 11 36  1  0  0  0  0
 12 13  2  0  0  0  0
 12 17  1  0  0  0  0
 13 14  1  0  0  0  0
 13 37  1  0  0  0  0
 14 15  2  0  0  0  0
 14 38  1  0  0  0  0
 15 16  1  0  0  0  0
 15 18  1  0  0  0  0
 16 17  2  0  0  0  0
 16 39  1  0  0  0  0
 17 40  1  0  0  0  0
 18 19  2  0  0  0  0
 18 22  1  0  0  0  0
 19 20  1  0  0  0  0
 19 41  1  0  0  0  0
 20 21  1  0  0  0  0
 20 23  1  0  0  0  0
 21 22  2  0  0  0  0
 22 42  1  0  0  0  0
 23 43  1  0  0  0  0
 23 44  1  0  0  0  0
 23 45  1  0  0  0  0
 24 25  1  0  0  0  0
 24 46  1  0  0  0  0
 24 47  1  0  0  0  0
 25 26  1  0  0  0  0
 25 48  1  0  0  0  0
 25 49  1  0  0  0  0
 26 27  1  0  0  0  0
 26 50  1  0  0  0  0
 27 28  2  0  0  0  0
 27 29  1  0  0  0  0
 29 51  1  0  0  0  0
 29 52  1  0  0  0  0
 29 53  1  0  0  0  0
M  END
>  <Name>
27

>  <IC50[uM]>
0.68

$$$$
