@<TRIPOS>MOLECULE
28
 51 55 0 0 0
SMALL
GASTEIGER
****
Structure written by MMmdl.
@<TRIPOS>ATOM
      1 C          -6.4084   12.3297  -11.9887 C.ar    1  LIG1        0.0306
      2 C          -6.5165   11.7544  -10.7314 C.ar    1  LIG1       -0.0297
      3 C          -7.7418   10.5517  -13.0215 C.ar    1  LIG1       -0.0345
      4 C          -7.0245   11.7463  -13.1093 C.ar    1  LIG1       -0.0386
      5 C          -7.8268    9.9859  -11.7428 C.ar    1  LIG1        0.0661
      6 C          -7.2396   10.5800  -10.6042 C.ar    1  LIG1        0.0247
      7 C          -7.6095    9.7151   -9.5092 C.ar    1  LIG1        0.0748
      8 N          -8.2849    8.7010   -9.9773 N.ar    1  LIG1       -0.1774
      9 N          -8.4373    8.8403  -11.2922 N.ar    1  LIG1       -0.2767
     10 C          -7.3311    9.8727   -8.0225 C.3     1  LIG1        0.0171
     11 N          -5.6734   13.4955  -12.1182 N.pl3   1  LIG1       -0.3255
     12 C          -5.9616   10.4819   -7.7358 C.ar    1  LIG1       -0.0415
     13 C          -4.8034    9.7678   -8.0459 C.ar    1  LIG1       -0.0576
     14 C          -3.5615   10.3255   -7.7934 C.ar    1  LIG1       -0.0537
     15 C          -3.4526   11.6006   -7.2315 C.ar    1  LIG1       -0.0149
     16 C          -4.6161   12.3136   -6.9153 C.ar    1  LIG1       -0.0537
     17 C          -5.8662   11.7565   -7.1617 C.ar    1  LIG1       -0.0576
     18 C          -2.1079   12.1894   -6.9634 C.ar    1  LIG1        0.0195
     19 C          -1.7834   13.4363   -6.4469 C.ar    1  LIG1        0.0329
     20 N          -0.4443   13.4911   -6.3955 N.ar    1  LIG1       -0.2739
     21 N           0.1636   12.4174   -6.8067 N.ar    1  LIG1       -0.1793
     22 C          -0.8107   11.6018   -7.1804 C.ar    1  LIG1        0.0571
     23 C           0.3735   14.6113   -5.9298 C.3     1  LIG1        0.0302
     24 C          -5.8857   14.5071  -13.1620 C.3     1  LIG1        0.0357
     25 C          -4.6042   14.8313  -13.9092 C.3     1  LIG1        0.0634
     26 O          -3.6374   15.2080  -12.9343 O.3     1  LIG1       -0.3767
     27 C          -3.2854   14.1223  -12.1198 C.3     1  LIG1        0.0634
     28 C          -4.5109   13.8217  -11.2574 C.3     1  LIG1        0.0357
     29 H          -6.0682   12.2161   -9.8713 H       1  LIG1        0.0643
     30 H          -8.2010   10.1101  -13.8868 H       1  LIG1        0.0639
     31 H          -6.9267   12.2174  -14.0767 H       1  LIG1        0.0637
     32 H          -8.9595    8.1575  -11.8226 H       1  LIG1        0.1889
     33 H          -8.0925   10.5250   -7.5864 H       1  LIG1        0.0377
     34 H          -7.4209    8.9193   -7.5085 H       1  LIG1        0.0377
     35 H          -4.8800    8.7854   -8.4838 H       1  LIG1        0.0621
     36 H          -2.6672    9.7633   -8.0389 H       1  LIG1        0.0624
     37 H          -4.5421   13.2992   -6.4778 H       1  LIG1        0.0624
     38 H          -6.7571   12.3125   -6.9195 H       1  LIG1        0.0621
     39 H          -2.3892   14.2694   -6.1271 H       1  LIG1        0.0832
     40 H          -0.6149   10.6243   -7.5849 H       1  LIG1        0.0854
     41 H           1.0200   14.9384   -6.7449 H       1  LIG1        0.0473
     42 H           0.9846   14.2825   -5.0890 H       1  LIG1        0.0473
     43 H          -0.2640   15.4377   -5.6195 H       1  LIG1        0.0473
     44 H          -6.2295   15.4249  -12.6765 H       1  LIG1        0.0486
     45 H          -6.6795   14.2190  -13.8644 H       1  LIG1        0.0486
     46 H          -4.6857   15.5804  -14.6607 H       1  LIG1        0.0575
     47 H          -4.3009   13.9383  -14.4740 H       1  LIG1        0.0575
     48 H          -2.3629   14.3192  -11.5703 H       1  LIG1        0.0575
     49 H          -3.0794   13.2286  -12.7328 H       1  LIG1        0.0575
     50 H          -4.6912   14.6543  -10.5882 H       1  LIG1        0.0486
     51 H          -4.2185   12.9480  -10.6599 H       1  LIG1        0.0486
@<TRIPOS>BOND
     1     1     2   ar
     2     1     4   ar
     3     1    11    1
     4     2     6   ar
     5     2    29    1
     6     3     4   ar
     7     3     5   ar
     8     3    30    1
     9     4    31    1
    10     5     6   ar
    11     5     9   ar
    12     6     7   ar
    13     7     8   ar
    14     7    10    1
    15     8     9   ar
    16     9    32    1
    17    10    12    1
    18    10    33    1
    19    10    34    1
    20    11    24    1
    21    11    28    1
    22    12    13   ar
    23    12    17   ar
    24    13    14   ar
    25    13    35    1
    26    14    15   ar
    27    14    36    1
    28    15    16   ar
    29    15    18    1
    30    16    17   ar
    31    16    37    1
    32    17    38    1
    33    18    19   ar
    34    18    22   ar
    35    19    20   ar
    36    19    39    1
    37    20    21   ar
    38    20    23    1
    39    21    22   ar
    40    22    40    1
    41    23    41    1
    42    23    42    1
    43    23    43    1
    44    24    25    1
    45    24    44    1
    46    24    45    1
    47    25    26    1
    48    25    46    1
    49    25    47    1
    50    26    27    1
    51    27    28    1
    52    27    48    1
    53    27    49    1
    54    28    50    1
    55    28    51    1
