28
 OpenBabel02152110423D
Structure written by MMmdl.
 51 55  0  0  1  0  0  0  0  0999 V2000
   -6.4084   12.3297  -11.9887 C   0  0  0  0  0  0  0  0  0  0  0  0
   -6.5165   11.7544  -10.7314 C   0  0  0  0  0  0  0  0  0  0  0  0
   -7.7418   10.5517  -13.0215 C   0  0  0  0  0  0  0  0  0  0  0  0
   -7.0245   11.7463  -13.1093 C   0  0  0  0  0  0  0  0  0  0  0  0
   -7.8268    9.9859  -11.7428 C   0  0  0  0  0  0  0  0  0  0  0  0
   -7.2396   10.5800  -10.6042 C   0  0  0  0  0  0  0  0  0  0  0  0
   -7.6095    9.7151   -9.5092 C   0  0  0  0  0  0  0  0  0  0  0  0
   -8.2849    8.7010   -9.9773 N   0  0  0  0  0  0  0  0  0  0  0  0
   -8.4373    8.8403  -11.2922 N   0  0  0  0  0  0  0  0  0  0  0  0
   -7.3311    9.8727   -8.0225 C   0  0  0  0  0  0  0  0  0  0  0  0
   -5.6734   13.4955  -12.1182 N   0  0  0  0  0  0  0  0  0  0  0  0
   -5.9616   10.4819   -7.7358 C   0  0  0  0  0  0  0  0  0  0  0  0
   -4.8034    9.7678   -8.0459 C   0  0  0  0  0  0  0  0  0  0  0  0
   -3.5615   10.3255   -7.7934 C   0  0  0  0  0  0  0  0  0  0  0  0
   -3.4526   11.6006   -7.2315 C   0  0  0  0  0  0  0  0  0  0  0  0
   -4.6161   12.3136   -6.9153 C   0  0  0  0  0  0  0  0  0  0  0  0
   -5.8662   11.7565   -7.1617 C   0  0  0  0  0  0  0  0  0  0  0  0
   -2.1079   12.1894   -6.9634 C   0  0  0  0  0  0  0  0  0  0  0  0
   -1.7834   13.4363   -6.4469 C   0  0  0  0  0  0  0  0  0  0  0  0
   -0.4443   13.4911   -6.3955 N   0  0  0  0  0  0  0  0  0  0  0  0
    0.1636   12.4174   -6.8067 N   0  0  0  0  0  0  0  0  0  0  0  0
   -0.8107   11.6018   -7.1804 C   0  0  0  0  0  0  0  0  0  0  0  0
    0.3735   14.6113   -5.9298 C   0  0  0  0  0  0  0  0  0  0  0  0
   -5.8857   14.5071  -13.1620 C   0  0  0  0  0  0  0  0  0  0  0  0
   -4.6042   14.8313  -13.9092 C   0  0  0  0  0  0  0  0  0  0  0  0
   -3.6374   15.2080  -12.9343 O   0  0  0  0  0  0  0  0  0  0  0  0
   -3.2854   14.1223  -12.1198 C   0  0  0  0  0  0  0  0  0  0  0  0
   -4.5109   13.8217  -11.2574 C   0  0  0  0  0  0  0  0  0  0  0  0
   -6.0682   12.2161   -9.8713 H   0  0  0  0  0  0  0  0  0  0  0  0
   -8.2010   10.1101  -13.8868 H   0  0  0  0  0  0  0  0  0  0  0  0
   -6.9267   12.2174  -14.0767 H   0  0  0  0  0  0  0  0  0  0  0  0
   -8.9595    8.1575  -11.8226 H   0  0  0  0  0  0  0  0  0  0  0  0
   -8.0925   10.5250   -7.5864 H   0  0  0  0  0  0  0  0  0  0  0  0
   -7.4209    8.9193   -7.5085 H   0  0  0  0  0  0  0  0  0  0  0  0
   -4.8800    8.7854   -8.4838 H   0  0  0  0  0  0  0  0  0  0  0  0
   -2.6672    9.7633   -8.0389 H   0  0  0  0  0  0  0  0  0  0  0  0
   -4.5421   13.2992   -6.4778 H   0  0  0  0  0  0  0  0  0  0  0  0
   -6.7571   12.3125   -6.9195 H   0  0  0  0  0  0  0  0  0  0  0  0
   -2.3892   14.2694   -6.1271 H   0  0  0  0  0  0  0  0  0  0  0  0
   -0.6149   10.6243   -7.5849 H   0  0  0  0  0  0  0  0  0  0  0  0
    1.0200   14.9384   -6.7449 H   0  0  0  0  0  0  0  0  0  0  0  0
    0.9846   14.2825   -5.0890 H   0  0  0  0  0  0  0  0  0  0  0  0
   -0.2640   15.4377   -5.6195 H   0  0  0  0  0  0  0  0  0  0  0  0
   -6.2295   15.4249  -12.6765 H   0  0  0  0  0  0  0  0  0  0  0  0
   -6.6795   14.2190  -13.8644 H   0  0  0  0  0  0  0  0  0  0  0  0
   -4.6857   15.5804  -14.6607 H   0  0  0  0  0  0  0  0  0  0  0  0
   -4.3009   13.9383  -14.4740 H   0  0  0  0  0  0  0  0  0  0  0  0
   -2.3629   14.3192  -11.5703 H   0  0  0  0  0  0  0  0  0  0  0  0
   -3.0794   13.2286  -12.7328 H   0  0  0  0  0  0  0  0  0  0  0  0
   -4.6912   14.6543  -10.5882 H   0  0  0  0  0  0  0  0  0  0  0  0
   -4.2185   12.9480  -10.6599 H   0  0  0  0  0  0  0  0  0  0  0  0
  1  2  2  0  0  0  0
  1  4  1  0  0  0  0
  1 11  1  0  0  0  0
  2  6  1  0  0  0  0
  2 29  1  0  0  0  0
  3  4  2  0  0  0  0
  3  5  1  0  0  0  0
  3 30  1  0  0  0  0
  4 31  1  0  0  0  0
  5  6  2  0  0  0  0
  5  9  1  0  0  0  0
  6  7  1  0  0  0  0
  7  8  2  0  0  0  0
  7 10  1  0  0  0  0
  8  9  1  0  0  0  0
  9 32  1  0  0  0  0
 10 12  1  0  0  0  0
 10 33  1  0  0  0  0
 10 34  1  0  0  0  0
 11 24  1  0  0  0  0
 11 28  1  0  0  0  0
 12 13  2  0  0  0  0
 12 17  1  0  0  0  0
 13 14  1  0  0  0  0
 13 35  1  0  0  0  0
 14 15  2  0  0  0  0
 14 36  1  0  0  0  0
 15 16  1  0  0  0  0
 15 18  1  0  0  0  0
 16 17  2  0  0  0  0
 16 37  1  0  0  0  0
 17 38  1  0  0  0  0
 18 19  2  0  0  0  0
 18 22  1  0  0  0  0
 19 20  1  0  0  0  0
 19 39  1  0  0  0  0
 20 21  1  0  0  0  0
 20 23  1  0  0  0  0
 21 22  2  0  0  0  0
 22 40  1  0  0  0  0
 23 41  1  0  0  0  0
 23 42  1  0  0  0  0
 23 43  1  0  0  0  0
 24 25  1  0  0  0  0
 24 44  1  0  0  0  0
 24 45  1  0  0  0  0
 25 26  1  0  0  0  0
 25 46  1  0  0  0  0
 25 47  1  0  0  0  0
 26 27  1  0  0  0  0
 27 28  1  0  0  0  0
 27 48  1  0  0  0  0
 27 49  1  0  0  0  0
 28 50  1  0  0  0  0
 28 51  1  0  0  0  0
M  END
>  <Name>
28

>  <IC50[uM]>
30

$$$$
