@<TRIPOS>MOLECULE
29
 50 54 0 0 0
SMALL
GASTEIGER
****
Structure written by MMmdl.
@<TRIPOS>ATOM
      1 C          -6.3727   12.3493  -11.9877 C.ar    1  LIG1        0.1060
      2 C          -6.5190   11.8167  -10.7261 C.ar    1  LIG1       -0.0244
      3 C          -7.6919   10.5755  -13.0077 C.ar    1  LIG1       -0.0344
      4 C          -6.9476   11.7646  -13.1157 C.ar    1  LIG1       -0.0333
      5 C          -7.8131   10.0080  -11.7494 C.ar    1  LIG1        0.0661
      6 C          -7.2399   10.6155  -10.5946 C.ar    1  LIG1        0.0248
      7 C          -7.6088    9.7430   -9.5107 C.ar    1  LIG1        0.0748
      8 N          -8.2764    8.7286   -9.9647 N.ar    1  LIG1       -0.1774
      9 N          -8.4188    8.8758  -11.2882 N.ar    1  LIG1       -0.2767
     10 C          -7.3326    9.8988   -8.0180 C.3     1  LIG1        0.0171
     11 S          -5.4060   13.8057  -12.2007 S.O2    1  LIG1        0.0587
     12 C          -5.9763   10.4855   -7.7248 C.ar    1  LIG1       -0.0415
     13 C          -5.8692   11.7523   -7.1523 C.ar    1  LIG1       -0.0576
     14 C          -4.6115   12.3005   -6.8946 C.ar    1  LIG1       -0.0537
     15 C          -3.4415   11.5837   -7.2014 C.ar    1  LIG1       -0.0149
     16 C          -3.5677   10.3182   -7.7642 C.ar    1  LIG1       -0.0537
     17 C          -4.8209    9.7630   -8.0308 C.ar    1  LIG1       -0.0576
     18 C          -2.1027   12.1584   -6.9334 C.ar    1  LIG1        0.0195
     19 C          -1.7604   13.4248   -6.4226 C.ar    1  LIG1        0.0329
     20 N          -0.4260   13.4533   -6.3925 N.ar    1  LIG1       -0.2739
     21 N           0.1594   12.3444   -6.7934 N.ar    1  LIG1       -0.1793
     22 C          -0.8210   11.5507   -7.1379 C.ar    1  LIG1        0.0571
     23 C           0.4194   14.5816   -5.9703 C.3     1  LIG1        0.0302
     24 O          -4.4605   13.4170  -13.2280 O.2     1  LIG1       -0.1530
     25 O          -6.3362   14.9020  -12.4291 O.2     1  LIG1       -0.1530
     26 N          -4.5495   14.1196  -10.6911 N.3     1  LIG1       -0.1869
     27 C          -3.3000   13.4420  -10.3686 C.3     1  LIG1        0.0289
     28 C          -2.0717   13.9935  -11.0748 C.3     1  LIG1       -0.0345
     29 C          -2.2627   14.2439   -9.6094 C.3     1  LIG1       -0.0345
     30 H          -6.0958   12.2837   -9.8431 H       1  LIG1        0.0644
     31 H          -8.1384   10.1166  -13.9015 H       1  LIG1        0.0639
     32 H          -6.8216   12.2011  -14.0642 H       1  LIG1        0.0638
     33 H          -8.9542    8.2051  -11.8388 H       1  LIG1        0.1889
     34 H          -8.1029   10.5216   -7.5592 H       1  LIG1        0.0377
     35 H          -7.4192    8.9159   -7.5103 H       1  LIG1        0.0377
     36 H          -6.7593   12.3241   -6.9156 H       1  LIG1        0.0621
     37 H          -4.5452   13.3016   -6.4614 H       1  LIG1        0.0624
     38 H          -2.6739    9.7489   -8.0044 H       1  LIG1        0.0624
     39 H          -4.8885    8.7827   -8.4653 H       1  LIG1        0.0621
     40 H          -2.3647   14.2437   -6.1001 H       1  LIG1        0.0832
     41 H          -0.6238   10.5910   -7.5497 H       1  LIG1        0.0854
     42 H           1.0441   14.8389   -6.8193 H       1  LIG1        0.0473
     43 H           1.0232   14.2959   -5.1361 H       1  LIG1        0.0473
     44 H          -0.2125   15.4354   -5.7291 H       1  LIG1        0.0473
     45 H          -4.8494   14.9008  -10.1205 H       1  LIG1        0.1483
     46 H          -3.3804   12.3527  -10.1831 H       1  LIG1        0.0477
     47 H          -1.2874   13.2998  -11.3738 H       1  LIG1        0.0281
     48 H          -2.1931   14.8215  -11.7603 H       1  LIG1        0.0281
     49 H          -2.5807   15.2116   -9.2431 H       1  LIG1        0.0281
     50 H          -1.5514   13.7432   -8.9374 H       1  LIG1        0.0281
@<TRIPOS>BOND
     1     1     2   ar
     2     1     4   ar
     3     1    11    1
     4     2     6   ar
     5     2    30    1
     6     3     4   ar
     7     3     5   ar
     8     3    31    1
     9     4    32    1
    10     5     6   ar
    11     5     9   ar
    12     6     7   ar
    13     7     8   ar
    14     7    10    1
    15     8     9   ar
    16     9    33    1
    17    10    12    1
    18    10    34    1
    19    10    35    1
    20    11    24    2
    21    11    25    2
    22    11    26    1
    23    12    13   ar
    24    12    17   ar
    25    13    14   ar
    26    13    36    1
    27    14    15   ar
    28    14    37    1
    29    15    16   ar
    30    15    18    1
    31    16    17   ar
    32    16    38    1
    33    17    39    1
    34    18    19   ar
    35    18    22   ar
    36    19    20   ar
    37    19    40    1
    38    20    21   ar
    39    20    23    1
    40    21    22   ar
    41    22    41    1
    42    23    42    1
    43    23    43    1
    44    23    44    1
    45    26    27    1
    46    26    45    1
    47    27    28    1
    48    27    29    1
    49    27    46    1
    50    28    29    1
    51    28    47    1
    52    28    48    1
    53    29    49    1
    54    29    50    1
