29
 OpenBabel02152110423D
Structure written by MMmdl.
 50 54  0  0  1  0  0  0  0  0999 V2000
   -6.3727   12.3493  -11.9877 C   0  0  0  0  0  0  0  0  0  0  0  0
   -6.5190   11.8167  -10.7261 C   0  0  0  0  0  0  0  0  0  0  0  0
   -7.6919   10.5755  -13.0077 C   0  0  0  0  0  0  0  0  0  0  0  0
   -6.9476   11.7646  -13.1157 C   0  0  0  0  0  0  0  0  0  0  0  0
   -7.8131   10.0080  -11.7494 C   0  0  0  0  0  0  0  0  0  0  0  0
   -7.2399   10.6155  -10.5946 C   0  0  0  0  0  0  0  0  0  0  0  0
   -7.6088    9.7430   -9.5107 C   0  0  0  0  0  0  0  0  0  0  0  0
   -8.2764    8.7286   -9.9647 N   0  0  0  0  0  0  0  0  0  0  0  0
   -8.4188    8.8758  -11.2882 N   0  0  0  0  0  0  0  0  0  0  0  0
   -7.3326    9.8988   -8.0180 C   0  0  0  0  0  0  0  0  0  0  0  0
   -5.4060   13.8057  -12.2007 S   0  0  0  0  0  0  0  0  0  0  0  0
   -5.9763   10.4855   -7.7248 C   0  0  0  0  0  0  0  0  0  0  0  0
   -5.8692   11.7523   -7.1523 C   0  0  0  0  0  0  0  0  0  0  0  0
   -4.6115   12.3005   -6.8946 C   0  0  0  0  0  0  0  0  0  0  0  0
   -3.4415   11.5837   -7.2014 C   0  0  0  0  0  0  0  0  0  0  0  0
   -3.5677   10.3182   -7.7642 C   0  0  0  0  0  0  0  0  0  0  0  0
   -4.8209    9.7630   -8.0308 C   0  0  0  0  0  0  0  0  0  0  0  0
   -2.1027   12.1584   -6.9334 C   0  0  0  0  0  0  0  0  0  0  0  0
   -1.7604   13.4248   -6.4226 C   0  0  0  0  0  0  0  0  0  0  0  0
   -0.4260   13.4533   -6.3925 N   0  0  0  0  0  0  0  0  0  0  0  0
    0.1594   12.3444   -6.7934 N   0  0  0  0  0  0  0  0  0  0  0  0
   -0.8210   11.5507   -7.1379 C   0  0  0  0  0  0  0  0  0  0  0  0
    0.4194   14.5816   -5.9703 C   0  0  0  0  0  0  0  0  0  0  0  0
   -4.4605   13.4170  -13.2280 O   0  0  0  0  0  0  0  0  0  0  0  0
   -6.3362   14.9020  -12.4291 O   0  0  0  0  0  0  0  0  0  0  0  0
   -4.5495   14.1196  -10.6911 N   0  0  0  0  0  0  0  0  0  0  0  0
   -3.3000   13.4420  -10.3686 C   0  0  0  0  0  0  0  0  0  0  0  0
   -2.0717   13.9935  -11.0748 C   0  0  0  0  0  0  0  0  0  0  0  0
   -2.2627   14.2439   -9.6094 C   0  0  0  0  0  0  0  0  0  0  0  0
   -6.0958   12.2837   -9.8431 H   0  0  0  0  0  0  0  0  0  0  0  0
   -8.1384   10.1166  -13.9015 H   0  0  0  0  0  0  0  0  0  0  0  0
   -6.8216   12.2011  -14.0642 H   0  0  0  0  0  0  0  0  0  0  0  0
   -8.9542    8.2051  -11.8388 H   0  0  0  0  0  0  0  0  0  0  0  0
   -8.1029   10.5216   -7.5592 H   0  0  0  0  0  0  0  0  0  0  0  0
   -7.4192    8.9159   -7.5103 H   0  0  0  0  0  0  0  0  0  0  0  0
   -6.7593   12.3241   -6.9156 H   0  0  0  0  0  0  0  0  0  0  0  0
   -4.5452   13.3016   -6.4614 H   0  0  0  0  0  0  0  0  0  0  0  0
   -2.6739    9.7489   -8.0044 H   0  0  0  0  0  0  0  0  0  0  0  0
   -4.8885    8.7827   -8.4653 H   0  0  0  0  0  0  0  0  0  0  0  0
   -2.3647   14.2437   -6.1001 H   0  0  0  0  0  0  0  0  0  0  0  0
   -0.6238   10.5910   -7.5497 H   0  0  0  0  0  0  0  0  0  0  0  0
    1.0441   14.8389   -6.8193 H   0  0  0  0  0  0  0  0  0  0  0  0
    1.0232   14.2959   -5.1361 H   0  0  0  0  0  0  0  0  0  0  0  0
   -0.2125   15.4354   -5.7291 H   0  0  0  0  0  0  0  0  0  0  0  0
   -4.8494   14.9008  -10.1205 H   0  0  0  0  0  0  0  0  0  0  0  0
   -3.3804   12.3527  -10.1831 H   0  0  0  0  0  0  0  0  0  0  0  0
   -1.2874   13.2998  -11.3738 H   0  0  0  0  0  0  0  0  0  0  0  0
   -2.1931   14.8215  -11.7603 H   0  0  0  0  0  0  0  0  0  0  0  0
   -2.5807   15.2116   -9.2431 H   0  0  0  0  0  0  0  0  0  0  0  0
   -1.5514   13.7432   -8.9374 H   0  0  0  0  0  0  0  0  0  0  0  0
  1  2  2  0  0  0  0
  1  4  1  0  0  0  0
  1 11  1  0  0  0  0
  2  6  1  0  0  0  0
  2 30  1  0  0  0  0
  3  4  2  0  0  0  0
  3  5  1  0  0  0  0
  3 31  1  0  0  0  0
  4 32  1  0  0  0  0
  5  6  2  0  0  0  0
  5  9  1  0  0  0  0
  6  7  1  0  0  0  0
  7  8  2  0  0  0  0
  7 10  1  0  0  0  0
  8  9  1  0  0  0  0
  9 33  1  0  0  0  0
 10 12  1  0  0  0  0
 10 34  1  0  0  0  0
 10 35  1  0  0  0  0
 11 24  2  0  0  0  0
 11 25  2  0  0  0  0
 11 26  1  0  0  0  0
 12 13  2  0  0  0  0
 12 17  1  0  0  0  0
 13 14  1  0  0  0  0
 13 36  1  0  0  0  0
 14 15  2  0  0  0  0
 14 37  1  0  0  0  0
 15 16  1  0  0  0  0
 15 18  1  0  0  0  0
 16 17  2  0  0  0  0
 16 38  1  0  0  0  0
 17 39  1  0  0  0  0
 18 19  2  0  0  0  0
 18 22  1  0  0  0  0
 19 20  1  0  0  0  0
 19 40  1  0  0  0  0
 20 21  1  0  0  0  0
 20 23  1  0  0  0  0
 21 22  2  0  0  0  0
 22 41  1  0  0  0  0
 23 42  1  0  0  0  0
 23 43  1  0  0  0  0
 23 44  1  0  0  0  0
 26 27  1  0  0  0  0
 26 45  1  0  0  0  0
 27 28  1  0  0  0  0
 27 29  1  0  0  0  0
 27 46  1  0  0  0  0
 28 29  1  0  0  0  0
 28 47  1  0  0  0  0
 28 48  1  0  0  0  0
 29 49  1  0  0  0  0
 29 50  1  0  0  0  0
M  END
>  <Name>
29

>  <IC50[uM]>
0.18

$$$$
