30
 OpenBabel02152110423D
Structure written by MMmdl.
 53 57  0  0  1  0  0  0  0  0999 V2000
   -6.3720   12.3564  -12.0094 C   0  0  0  0  0  0  0  0  0  0  0  0
   -6.5328   11.8103  -10.7336 C   0  0  0  0  0  0  0  0  0  0  0  0
   -7.7318   10.5755  -13.0290 C   0  0  0  0  0  0  0  0  0  0  0  0
   -6.9898   11.7633  -13.1279 C   0  0  0  0  0  0  0  0  0  0  0  0
   -7.8210   10.0065  -11.7558 C   0  0  0  0  0  0  0  0  0  0  0  0
   -7.2477   10.6184  -10.6026 C   0  0  0  0  0  0  0  0  0  0  0  0
   -7.6140    9.7458   -9.5136 C   0  0  0  0  0  0  0  0  0  0  0  0
   -8.2690    8.7218   -9.9879 N   0  0  0  0  0  0  0  0  0  0  0  0
   -8.4092    8.8538  -11.2990 N   0  0  0  0  0  0  0  0  0  0  0  0
   -7.3381    9.8926   -8.0280 C   0  0  0  0  0  0  0  0  0  0  0  0
   -4.3458   13.7121  -11.5140 N   0  0  0  0  0  0  0  0  0  0  0  0
   -5.5478   13.6364  -12.1864 C   0  0  0  0  0  0  0  0  0  0  0  0
   -5.9572   14.5395  -12.9136 O   0  0  0  0  0  0  0  0  0  0  0  0
   -5.9581   10.4851   -7.7363 C   0  0  0  0  0  0  0  0  0  0  0  0
   -4.8068    9.7633   -8.0566 C   0  0  0  0  0  0  0  0  0  0  0  0
   -3.5506   10.3101   -7.8085 C   0  0  0  0  0  0  0  0  0  0  0  0
   -3.4405   11.5856   -7.2383 C   0  0  0  0  0  0  0  0  0  0  0  0
   -4.5911   12.3019   -6.9155 C   0  0  0  0  0  0  0  0  0  0  0  0
   -5.8461   11.7538   -7.1583 C   0  0  0  0  0  0  0  0  0  0  0  0
   -2.0993   12.1777   -6.9729 C   0  0  0  0  0  0  0  0  0  0  0  0
   -1.7708   13.4214   -6.4416 C   0  0  0  0  0  0  0  0  0  0  0  0
   -0.4313   13.4856   -6.3949 N   0  0  0  0  0  0  0  0  0  0  0  0
    0.1723   12.4145   -6.8299 N   0  0  0  0  0  0  0  0  0  0  0  0
   -0.8042   11.6008   -7.2039 C   0  0  0  0  0  0  0  0  0  0  0  0
    0.3889   14.5981   -5.9187 C   0  0  0  0  0  0  0  0  0  0  0  0
   -3.6987   12.5799  -10.8351 C   0  0  0  0  0  0  0  0  0  0  0  0
   -2.1930   12.9387  -10.9658 C   0  0  2  0  0  0  0  0  0  0  0  0
   -2.1862   14.4653  -10.9438 C   0  0  0  0  0  0  0  0  0  0  0  0
   -3.5086   14.9068  -11.5988 C   0  0  0  0  0  0  0  0  0  0  0  0
   -1.6500   12.4417  -12.1854 O   0  0  0  0  0  0  0  0  0  0  0  0
   -6.1228   12.3020   -9.8704 H   0  0  0  0  0  0  0  0  0  0  0  0
   -8.1946   10.1248  -13.8941 H   0  0  0  0  0  0  0  0  0  0  0  0
   -6.8719   12.2188  -14.1038 H   0  0  0  0  0  0  0  0  0  0  0  0
   -8.9012    8.1471  -11.8351 H   0  0  0  0  0  0  0  0  0  0  0  0
   -8.1102   10.5319   -7.5935 H   0  0  0  0  0  0  0  0  0  0  0  0
   -7.4404    8.9270   -7.5371 H   0  0  0  0  0  0  0  0  0  0  0  0
   -4.8882    8.7805   -8.5006 H   0  0  0  0  0  0  0  0  0  0  0  0
   -2.6630    9.7449   -8.0588 H   0  0  0  0  0  0  0  0  0  0  0  0
   -4.5090   13.2838   -6.4768 H   0  0  0  0  0  0  0  0  0  0  0  0
   -6.7306   12.3145   -6.9043 H   0  0  0  0  0  0  0  0  0  0  0  0
   -2.3781   14.2464   -6.1018 H   0  0  0  0  0  0  0  0  0  0  0  0
   -0.6071   10.6213   -7.6157 H   0  0  0  0  0  0  0  0  0  0  0  0
   -0.2361   15.4217   -5.5765 H   0  0  0  0  0  0  0  0  0  0  0  0
    1.0353   14.9583   -6.7244 H   0  0  0  0  0  0  0  0  0  0  0  0
    1.0204   14.2664   -5.0904 H   0  0  0  0  0  0  0  0  0  0  0  0
   -3.9494   12.5468   -9.7772 H   0  0  0  0  0  0  0  0  0  0  0  0
   -3.8987   11.6278  -11.3169 H   0  0  0  0  0  0  0  0  0  0  0  0
   -1.6028   12.5034  -10.1600 H   0  0  0  0  0  0  0  0  0  0  0  0
   -2.1219   14.8241   -9.9090 H   0  0  0  0  0  0  0  0  0  0  0  0
   -1.3279   14.8751  -11.4738 H   0  0  0  0  0  0  0  0  0  0  0  0
   -3.3274   15.2143  -12.6293 H   0  0  0  0  0  0  0  0  0  0  0  0
   -3.9689   15.7190  -11.0435 H   0  0  0  0  0  0  0  0  0  0  0  0
   -0.7819   12.8449  -12.3329 H   0  0  0  0  0  0  0  0  0  0  0  0
  1  2  2  0  0  0  0
  1  4  1  0  0  0  0
  1 12  1  0  0  0  0
  2  6  1  0  0  0  0
  2 31  1  0  0  0  0
  3  4  2  0  0  0  0
  3  5  1  0  0  0  0
  3 32  1  0  0  0  0
  4 33  1  0  0  0  0
  5  6  2  0  0  0  0
  5  9  1  0  0  0  0
  6  7  1  0  0  0  0
  7  8  2  0  0  0  0
  7 10  1  0  0  0  0
  8  9  1  0  0  0  0
  9 34  1  0  0  0  0
 10 14  1  0  0  0  0
 10 35  1  0  0  0  0
 10 36  1  0  0  0  0
 11 12  1  0  0  0  0
 11 26  1  0  0  0  0
 11 29  1  0  0  0  0
 12 13  2  0  0  0  0
 14 15  2  0  0  0  0
 14 19  1  0  0  0  0
 15 16  1  0  0  0  0
 15 37  1  0  0  0  0
 16 17  2  0  0  0  0
 16 38  1  0  0  0  0
 17 18  1  0  0  0  0
 17 20  1  0  0  0  0
 18 19  2  0  0  0  0
 18 39  1  0  0  0  0
 19 40  1  0  0  0  0
 20 21  2  0  0  0  0
 20 24  1  0  0  0  0
 21 22  1  0  0  0  0
 21 41  1  0  0  0  0
 22 23  1  0  0  0  0
 22 25  1  0  0  0  0
 23 24  2  0  0  0  0
 24 42  1  0  0  0  0
 25 43  1  0  0  0  0
 25 44  1  0  0  0  0
 25 45  1  0  0  0  0
 26 27  1  0  0  0  0
 26 46  1  0  0  0  0
 26 47  1  0  0  0  0
 27 28  1  0  0  0  0
 27 30  1  0  0  0  0
 27 48  1  1  0  0  0
 28 29  1  0  0  0  0
 28 49  1  0  0  0  0
 28 50  1  0  0  0  0
 29 51  1  0  0  0  0
 29 52  1  0  0  0  0
 30 53  1  0  0  0  0
M  END
>  <Name>
30

>  <IC50[uM]>
0.003

$$$$
