@<TRIPOS>MOLECULE
31
 53 57 0 0 0
SMALL
GASTEIGER
****
Structure written by MMmdl.
@<TRIPOS>ATOM
      1 C          -6.3709   12.3579  -12.0062 C.ar    1  LIG1        0.0376
      2 C          -6.5187   11.8083  -10.7296 C.ar    1  LIG1       -0.0387
      3 C          -7.7194   10.5704  -13.0321 C.ar    1  LIG1       -0.0356
      4 C          -6.9838   11.7645  -13.1240 C.ar    1  LIG1       -0.0476
      5 C          -7.8186   10.0073  -11.7576 C.ar    1  LIG1        0.0661
      6 C          -7.2434   10.6206  -10.5991 C.ar    1  LIG1        0.0237
      7 C          -7.6160    9.7494   -9.5117 C.ar    1  LIG1        0.0748
      8 N          -8.2808    8.7336   -9.9894 N.ar    1  LIG1       -0.1774
      9 N          -8.4141    8.8594  -11.3008 N.ar    1  LIG1       -0.2767
     10 C          -7.3385    9.8886   -8.0248 C.3     1  LIG1        0.0171
     11 N          -4.3631   13.7190  -11.4993 N.am    1  LIG1       -0.2950
     12 C          -5.5500   13.6364  -12.1907 C.2     1  LIG1        0.2467
     13 O          -5.9462   14.5251  -12.9474 O.2     1  LIG1       -0.2700
     14 C          -5.9607   10.4852   -7.7356 C.ar    1  LIG1       -0.0415
     15 C          -4.8097    9.7639   -8.0527 C.ar    1  LIG1       -0.0576
     16 C          -3.5522   10.3124   -7.8024 C.ar    1  LIG1       -0.0537
     17 C          -3.4444   11.5885   -7.2376 C.ar    1  LIG1       -0.0149
     18 C          -4.5952   12.3052   -6.9174 C.ar    1  LIG1       -0.0537
     19 C          -5.8509   11.7557   -7.1626 C.ar    1  LIG1       -0.0576
     20 C          -2.1000   12.1783   -6.9759 C.ar    1  LIG1        0.0195
     21 C          -1.7654   13.4353   -6.4786 C.ar    1  LIG1        0.0329
     22 N          -0.4305   13.4892   -6.4172 N.ar    1  LIG1       -0.2739
     23 N           0.1699   12.4025   -6.8093 N.ar    1  LIG1       -0.1793
     24 C          -0.8029   11.5856   -7.1770 C.ar    1  LIG1        0.0571
     25 C           0.3883   14.6074   -5.9669 C.3     1  LIG1        0.0302
     26 C          -3.5134   14.9066  -11.6049 C.3     1  LIG1        0.0410
     27 C          -2.2037   14.4678  -10.9376 C.3     1  LIG1        0.0724
     28 C          -2.2231   12.9442  -10.9826 C.3     1  LIG1       -0.0095
     29 C          -3.7200   12.5740  -10.8214 C.3     1  LIG1        0.0175
     30 O          -1.0475   15.0410  -11.4860 O.3     1  LIG1       -0.3902
     31 H          -6.0905   12.2941   -9.8658 H       1  LIG1        0.0632
     32 H          -8.1712   10.1113  -13.9056 H       1  LIG1        0.0639
     33 H          -6.8587   12.2252  -14.0930 H       1  LIG1        0.0626
     34 H          -8.9068    8.1511  -11.8353 H       1  LIG1        0.1889
     35 H          -8.1007   10.5426   -7.5968 H       1  LIG1        0.0377
     36 H          -7.4435    8.9253   -7.5227 H       1  LIG1        0.0377
     37 H          -4.8934    8.7808   -8.4968 H       1  LIG1        0.0621
     38 H          -2.6611    9.7503   -8.0475 H       1  LIG1        0.0624
     39 H          -4.5122   13.2860   -6.4777 H       1  LIG1        0.0624
     40 H          -6.7378   12.3164   -6.9148 H       1  LIG1        0.0621
     41 H          -2.3612   14.2786   -6.1713 H       1  LIG1        0.0832
     42 H          -0.6010   10.5907   -7.5580 H       1  LIG1        0.0854
     43 H          -0.2314   15.4494   -5.6631 H       1  LIG1        0.0473
     44 H           1.0518   14.9316   -6.7715 H       1  LIG1        0.0473
     45 H           1.0048   14.2986   -5.1213 H       1  LIG1        0.0473
     46 H          -3.3147   15.1479  -12.6510 H       1  LIG1        0.0490
     47 H          -3.9414   15.7669  -11.0946 H       1  LIG1        0.0490
     48 H          -2.2172   14.7609   -9.8839 H       1  LIG1        0.0609
     49 H          -1.8304   12.6225  -11.9538 H       1  LIG1        0.0306
     50 H          -1.5481   12.4842  -10.2524 H       1  LIG1        0.0306
     51 H          -3.9432   12.6118   -9.7567 H       1  LIG1        0.0465
     52 H          -3.9036   11.5934  -11.2745 H       1  LIG1        0.0465
     53 H          -1.2694   15.5207  -12.3068 H       1  LIG1        0.2098
@<TRIPOS>BOND
     1     1     2   ar
     2     1     4   ar
     3     1    12    1
     4     2     6   ar
     5     2    31    1
     6     3     4   ar
     7     3     5   ar
     8     3    32    1
     9     4    33    1
    10     5     6   ar
    11     5     9   ar
    12     6     7   ar
    13     7     8   ar
    14     7    10    1
    15     8     9   ar
    16     9    34    1
    17    10    14    1
    18    10    35    1
    19    10    36    1
    20    11    12   am
    21    11    26    1
    22    11    29    1
    23    12    13    2
    24    14    15   ar
    25    14    19   ar
    26    15    16   ar
    27    15    37    1
    28    16    17   ar
    29    16    38    1
    30    17    18   ar
    31    17    20    1
    32    18    19   ar
    33    18    39    1
    34    19    40    1
    35    20    21   ar
    36    20    24   ar
    37    21    22   ar
    38    21    41    1
    39    22    23   ar
    40    22    25    1
    41    23    24   ar
    42    24    42    1
    43    25    43    1
    44    25    44    1
    45    25    45    1
    46    26    27    1
    47    26    46    1
    48    26    47    1
    49    27    28    1
    50    27    30    1
    51    27    48    1
    52    28    29    1
    53    28    49    1
    54    28    50    1
    55    29    51    1
    56    29    52    1
    57    30    53    1
