31
 OpenBabel02152110423D
Structure written by MMmdl.
 53 57  0  0  1  0  0  0  0  0999 V2000
   -6.3709   12.3579  -12.0062 C   0  0  0  0  0  0  0  0  0  0  0  0
   -6.5187   11.8083  -10.7296 C   0  0  0  0  0  0  0  0  0  0  0  0
   -7.7194   10.5704  -13.0321 C   0  0  0  0  0  0  0  0  0  0  0  0
   -6.9838   11.7645  -13.1240 C   0  0  0  0  0  0  0  0  0  0  0  0
   -7.8186   10.0073  -11.7576 C   0  0  0  0  0  0  0  0  0  0  0  0
   -7.2434   10.6206  -10.5991 C   0  0  0  0  0  0  0  0  0  0  0  0
   -7.6160    9.7494   -9.5117 C   0  0  0  0  0  0  0  0  0  0  0  0
   -8.2808    8.7336   -9.9894 N   0  0  0  0  0  0  0  0  0  0  0  0
   -8.4141    8.8594  -11.3008 N   0  0  0  0  0  0  0  0  0  0  0  0
   -7.3385    9.8886   -8.0248 C   0  0  0  0  0  0  0  0  0  0  0  0
   -4.3631   13.7190  -11.4993 N   0  0  0  0  0  0  0  0  0  0  0  0
   -5.5500   13.6364  -12.1907 C   0  0  0  0  0  0  0  0  0  0  0  0
   -5.9462   14.5251  -12.9474 O   0  0  0  0  0  0  0  0  0  0  0  0
   -5.9607   10.4852   -7.7356 C   0  0  0  0  0  0  0  0  0  0  0  0
   -4.8097    9.7639   -8.0527 C   0  0  0  0  0  0  0  0  0  0  0  0
   -3.5522   10.3124   -7.8024 C   0  0  0  0  0  0  0  0  0  0  0  0
   -3.4444   11.5885   -7.2376 C   0  0  0  0  0  0  0  0  0  0  0  0
   -4.5952   12.3052   -6.9174 C   0  0  0  0  0  0  0  0  0  0  0  0
   -5.8509   11.7557   -7.1626 C   0  0  0  0  0  0  0  0  0  0  0  0
   -2.1000   12.1783   -6.9759 C   0  0  0  0  0  0  0  0  0  0  0  0
   -1.7654   13.4353   -6.4786 C   0  0  0  0  0  0  0  0  0  0  0  0
   -0.4305   13.4892   -6.4172 N   0  0  0  0  0  0  0  0  0  0  0  0
    0.1699   12.4025   -6.8093 N   0  0  0  0  0  0  0  0  0  0  0  0
   -0.8029   11.5856   -7.1770 C   0  0  0  0  0  0  0  0  0  0  0  0
    0.3883   14.6074   -5.9669 C   0  0  0  0  0  0  0  0  0  0  0  0
   -3.5134   14.9066  -11.6049 C   0  0  0  0  0  0  0  0  0  0  0  0
   -2.2037   14.4678  -10.9376 C   0  0  1  0  0  0  0  0  0  0  0  0
   -2.2231   12.9442  -10.9826 C   0  0  0  0  0  0  0  0  0  0  0  0
   -3.7200   12.5740  -10.8214 C   0  0  0  0  0  0  0  0  0  0  0  0
   -1.0475   15.0410  -11.4860 O   0  0  0  0  0  0  0  0  0  0  0  0
   -6.0905   12.2941   -9.8658 H   0  0  0  0  0  0  0  0  0  0  0  0
   -8.1712   10.1113  -13.9056 H   0  0  0  0  0  0  0  0  0  0  0  0
   -6.8587   12.2252  -14.0930 H   0  0  0  0  0  0  0  0  0  0  0  0
   -8.9068    8.1511  -11.8353 H   0  0  0  0  0  0  0  0  0  0  0  0
   -8.1007   10.5426   -7.5968 H   0  0  0  0  0  0  0  0  0  0  0  0
   -7.4435    8.9253   -7.5227 H   0  0  0  0  0  0  0  0  0  0  0  0
   -4.8934    8.7808   -8.4968 H   0  0  0  0  0  0  0  0  0  0  0  0
   -2.6611    9.7503   -8.0475 H   0  0  0  0  0  0  0  0  0  0  0  0
   -4.5122   13.2860   -6.4777 H   0  0  0  0  0  0  0  0  0  0  0  0
   -6.7378   12.3164   -6.9148 H   0  0  0  0  0  0  0  0  0  0  0  0
   -2.3612   14.2786   -6.1713 H   0  0  0  0  0  0  0  0  0  0  0  0
   -0.6010   10.5907   -7.5580 H   0  0  0  0  0  0  0  0  0  0  0  0
   -0.2314   15.4494   -5.6631 H   0  0  0  0  0  0  0  0  0  0  0  0
    1.0518   14.9316   -6.7715 H   0  0  0  0  0  0  0  0  0  0  0  0
    1.0048   14.2986   -5.1213 H   0  0  0  0  0  0  0  0  0  0  0  0
   -3.3147   15.1479  -12.6510 H   0  0  0  0  0  0  0  0  0  0  0  0
   -3.9414   15.7669  -11.0946 H   0  0  0  0  0  0  0  0  0  0  0  0
   -2.2172   14.7609   -9.8839 H   0  0  0  0  0  0  0  0  0  0  0  0
   -1.8304   12.6225  -11.9538 H   0  0  0  0  0  0  0  0  0  0  0  0
   -1.5481   12.4842  -10.2524 H   0  0  0  0  0  0  0  0  0  0  0  0
   -3.9432   12.6118   -9.7567 H   0  0  0  0  0  0  0  0  0  0  0  0
   -3.9036   11.5934  -11.2745 H   0  0  0  0  0  0  0  0  0  0  0  0
   -1.2694   15.5207  -12.3068 H   0  0  0  0  0  0  0  0  0  0  0  0
  1  2  2  0  0  0  0
  1  4  1  0  0  0  0
  1 12  1  0  0  0  0
  2  6  1  0  0  0  0
  2 31  1  0  0  0  0
  3  4  2  0  0  0  0
  3  5  1  0  0  0  0
  3 32  1  0  0  0  0
  4 33  1  0  0  0  0
  5  6  2  0  0  0  0
  5  9  1  0  0  0  0
  6  7  1  0  0  0  0
  7  8  2  0  0  0  0
  7 10  1  0  0  0  0
  8  9  1  0  0  0  0
  9 34  1  0  0  0  0
 10 14  1  0  0  0  0
 10 35  1  0  0  0  0
 10 36  1  0  0  0  0
 11 12  1  0  0  0  0
 11 26  1  0  0  0  0
 11 29  1  0  0  0  0
 12 13  2  0  0  0  0
 14 15  2  0  0  0  0
 14 19  1  0  0  0  0
 15 16  1  0  0  0  0
 15 37  1  0  0  0  0
 16 17  2  0  0  0  0
 16 38  1  0  0  0  0
 17 18  1  0  0  0  0
 17 20  1  0  0  0  0
 18 19  2  0  0  0  0
 18 39  1  0  0  0  0
 19 40  1  0  0  0  0
 20 21  2  0  0  0  0
 20 24  1  0  0  0  0
 21 22  1  0  0  0  0
 21 41  1  0  0  0  0
 22 23  1  0  0  0  0
 22 25  1  0  0  0  0
 23 24  2  0  0  0  0
 24 42  1  0  0  0  0
 25 43  1  0  0  0  0
 25 44  1  0  0  0  0
 25 45  1  0  0  0  0
 26 27  1  0  0  0  0
 26 46  1  0  0  0  0
 26 47  1  0  0  0  0
 27 28  1  0  0  0  0
 27 30  1  0  0  0  0
 27 48  1  1  0  0  0
 28 29  1  0  0  0  0
 28 49  1  0  0  0  0
 28 50  1  0  0  0  0
 29 51  1  0  0  0  0
 29 52  1  0  0  0  0
 30 53  1  0  0  0  0
M  END
>  <Name>
31

>  <IC50[uM]>
0.002

$$$$
