32
 OpenBabel02152110423D
Structure written by MMmdl.
 42 45  0  0  1  0  0  0  0  0999 V2000
   -6.3767   12.3649  -12.0150 C   0  0  0  0  0  0  0  0  0  0  0  0
   -6.5300   11.8201  -10.7355 C   0  0  0  0  0  0  0  0  0  0  0  0
   -7.7235   10.5758  -13.0283 C   0  0  0  0  0  0  0  0  0  0  0  0
   -6.9848   11.7731  -13.1297 C   0  0  0  0  0  0  0  0  0  0  0  0
   -7.8178   10.0121  -11.7526 C   0  0  0  0  0  0  0  0  0  0  0  0
   -7.2522   10.6205  -10.6098 C   0  0  0  0  0  0  0  0  0  0  0  0
   -7.6101    9.7439   -9.5117 C   0  0  0  0  0  0  0  0  0  0  0  0
   -8.2784    8.7249   -9.9778 N   0  0  0  0  0  0  0  0  0  0  0  0
   -8.4134    8.8570  -11.2978 N   0  0  0  0  0  0  0  0  0  0  0  0
   -7.3337    9.8935   -8.0288 C   0  0  0  0  0  0  0  0  0  0  0  0
   -4.4165   13.6746  -11.4876 N   0  0  0  0  0  0  0  0  0  0  0  0
   -5.5534   13.6276  -12.1919 C   0  0  0  0  0  0  0  0  0  0  0  0
   -5.9234   14.5178  -12.9405 O   0  0  0  0  0  0  0  0  0  0  0  0
   -5.9640   10.4853   -7.7356 C   0  0  0  0  0  0  0  0  0  0  0  0
   -4.8116    9.7640   -8.0536 C   0  0  0  0  0  0  0  0  0  0  0  0
   -3.5500   10.3127   -7.8058 C   0  0  0  0  0  0  0  0  0  0  0  0
   -3.4411   11.5873   -7.2364 C   0  0  0  0  0  0  0  0  0  0  0  0
   -4.5925   12.3023   -6.9174 C   0  0  0  0  0  0  0  0  0  0  0  0
   -5.8510   11.7510   -7.1622 C   0  0  0  0  0  0  0  0  0  0  0  0
   -2.0968   12.1763   -6.9669 C   0  0  0  0  0  0  0  0  0  0  0  0
   -1.7702   13.4221   -6.4317 C   0  0  0  0  0  0  0  0  0  0  0  0
   -0.4283   13.4864   -6.3849 N   0  0  0  0  0  0  0  0  0  0  0  0
    0.1730   12.4042   -6.8287 N   0  0  0  0  0  0  0  0  0  0  0  0
   -0.8019   11.5974   -7.2024 C   0  0  0  0  0  0  0  0  0  0  0  0
    0.3914   14.5951   -5.9029 C   0  0  0  0  0  0  0  0  0  0  0  0
   -6.0971   12.2907   -9.8695 H   0  0  0  0  0  0  0  0  0  0  0  0
   -8.1793   10.1210  -13.8973 H   0  0  0  0  0  0  0  0  0  0  0  0
   -6.8799   12.2200  -14.1007 H   0  0  0  0  0  0  0  0  0  0  0  0
   -8.9071    8.1535  -11.8388 H   0  0  0  0  0  0  0  0  0  0  0  0
   -8.1037   10.5390   -7.5949 H   0  0  0  0  0  0  0  0  0  0  0  0
   -7.4435    8.9258   -7.5263 H   0  0  0  0  0  0  0  0  0  0  0  0
   -3.8100   14.4821  -11.5579 H   0  0  0  0  0  0  0  0  0  0  0  0
   -4.1203   12.8861  -10.9327 H   0  0  0  0  0  0  0  0  0  0  0  0
   -4.8859    8.7811   -8.4956 H   0  0  0  0  0  0  0  0  0  0  0  0
   -2.6665    9.7473   -8.0499 H   0  0  0  0  0  0  0  0  0  0  0  0
   -4.5168   13.2894   -6.4781 H   0  0  0  0  0  0  0  0  0  0  0  0
   -6.7359   12.3175   -6.9096 H   0  0  0  0  0  0  0  0  0  0  0  0
   -2.3834   14.2452   -6.0920 H   0  0  0  0  0  0  0  0  0  0  0  0
   -0.6064   10.6335   -7.6221 H   0  0  0  0  0  0  0  0  0  0  0  0
   -0.2430   15.4167   -5.5635 H   0  0  0  0  0  0  0  0  0  0  0  0
    1.0295   14.9490   -6.7075 H   0  0  0  0  0  0  0  0  0  0  0  0
    1.0108   14.2566   -5.0798 H   0  0  0  0  0  0  0  0  0  0  0  0
  1  2  2  0  0  0  0
  1  4  1  0  0  0  0
  1 12  1  0  0  0  0
  2  6  1  0  0  0  0
  2 26  1  0  0  0  0
  3  4  2  0  0  0  0
  3  5  1  0  0  0  0
  3 27  1  0  0  0  0
  4 28  1  0  0  0  0
  5  6  2  0  0  0  0
  5  9  1  0  0  0  0
  6  7  1  0  0  0  0
  7  8  2  0  0  0  0
  7 10  1  0  0  0  0
  8  9  1  0  0  0  0
  9 29  1  0  0  0  0
 10 14  1  0  0  0  0
 10 30  1  0  0  0  0
 10 31  1  0  0  0  0
 11 12  1  0  0  0  0
 11 32  1  0  0  0  0
 11 33  1  0  0  0  0
 12 13  2  0  0  0  0
 14 15  2  0  0  0  0
 14 19  1  0  0  0  0
 15 16  1  0  0  0  0
 15 34  1  0  0  0  0
 16 17  2  0  0  0  0
 16 35  1  0  0  0  0
 17 18  1  0  0  0  0
 17 20  1  0  0  0  0
 18 19  2  0  0  0  0
 18 36  1  0  0  0  0
 19 37  1  0  0  0  0
 20 21  2  0  0  0  0
 20 24  1  0  0  0  0
 21 22  1  0  0  0  0
 21 38  1  0  0  0  0
 22 23  1  0  0  0  0
 22 25  1  0  0  0  0
 23 24  2  0  0  0  0
 24 39  1  0  0  0  0
 25 40  1  0  0  0  0
 25 41  1  0  0  0  0
 25 42  1  0  0  0  0
M  END
>  <Name>
32

>  <IC50[uM]>
0.11

$$$$
