33
 OpenBabel02152110423D
Structure written by MMmdl.
 49 53  0  0  1  0  0  0  0  0999 V2000
   -6.3918   12.3765  -12.0158 C   0  0  0  0  0  0  0  0  0  0  0  0
   -6.5335   11.8201  -10.7317 C   0  0  0  0  0  0  0  0  0  0  0  0
   -7.7273   10.5795  -13.0319 C   0  0  0  0  0  0  0  0  0  0  0  0
   -7.0082   11.7773  -13.1176 C   0  0  0  0  0  0  0  0  0  0  0  0
   -7.8294   10.0116  -11.7546 C   0  0  0  0  0  0  0  0  0  0  0  0
   -7.2533   10.6299  -10.5984 C   0  0  0  0  0  0  0  0  0  0  0  0
   -7.6133    9.7501   -9.5115 C   0  0  0  0  0  0  0  0  0  0  0  0
   -8.2802    8.7340   -9.9853 N   0  0  0  0  0  0  0  0  0  0  0  0
   -8.4149    8.8602  -11.2994 N   0  0  0  0  0  0  0  0  0  0  0  0
   -7.3368    9.8898   -8.0240 C   0  0  0  0  0  0  0  0  0  0  0  0
   -4.3580   13.5891  -11.5451 N   0  0  0  0  0  0  0  0  0  0  0  0
   -5.5327   13.6029  -12.2131 C   0  0  0  0  0  0  0  0  0  0  0  0
   -5.8791   14.5089  -12.9726 O   0  0  0  0  0  0  0  0  0  0  0  0
   -5.9622   10.4818   -7.7351 C   0  0  0  0  0  0  0  0  0  0  0  0
   -5.8525   11.7570   -7.1642 C   0  0  0  0  0  0  0  0  0  0  0  0
   -4.5920   12.3049   -6.9193 C   0  0  0  0  0  0  0  0  0  0  0  0
   -3.4386   11.5825   -7.2408 C   0  0  0  0  0  0  0  0  0  0  0  0
   -3.5579   10.3128   -7.8038 C   0  0  0  0  0  0  0  0  0  0  0  0
   -4.8126    9.7642   -8.0521 C   0  0  0  0  0  0  0  0  0  0  0  0
   -2.0919   12.1643   -6.9829 C   0  0  0  0  0  0  0  0  0  0  0  0
   -1.7362   13.4287   -6.5051 C   0  0  0  0  0  0  0  0  0  0  0  0
   -0.4017   13.4552   -6.4435 N   0  0  0  0  0  0  0  0  0  0  0  0
    0.1850   12.3496   -6.8156 N   0  0  0  0  0  0  0  0  0  0  0  0
   -0.8078   11.5460   -7.1722 C   0  0  0  0  0  0  0  0  0  0  0  0
    0.4351   14.5688   -6.0125 C   0  0  0  0  0  0  0  0  0  0  0  0
   -3.3172   14.5865  -11.7755 C   0  0  0  0  0  0  0  0  0  0  0  0
   -1.8924   14.0513  -11.7355 C   0  0  0  0  0  0  0  0  0  0  0  0
   -2.3932   14.9579  -10.6450 C   0  0  0  0  0  0  0  0  0  0  0  0
   -6.0761   12.2984   -9.8711 H   0  0  0  0  0  0  0  0  0  0  0  0
   -8.1698   10.1086  -13.9039 H   0  0  0  0  0  0  0  0  0  0  0  0
   -6.8733   12.2288  -14.0942 H   0  0  0  0  0  0  0  0  0  0  0  0
   -8.9079    8.1545  -11.8361 H   0  0  0  0  0  0  0  0  0  0  0  0
   -8.0997   10.5389   -7.5945 H   0  0  0  0  0  0  0  0  0  0  0  0
   -7.4394    8.9219   -7.5215 H   0  0  0  0  0  0  0  0  0  0  0  0
   -4.1267   12.7910  -10.9599 H   0  0  0  0  0  0  0  0  0  0  0  0
   -6.7395   12.3169   -6.9150 H   0  0  0  0  0  0  0  0  0  0  0  0
   -4.5095   13.2881   -6.4791 H   0  0  0  0  0  0  0  0  0  0  0  0
   -2.6661    9.7465   -8.0484 H   0  0  0  0  0  0  0  0  0  0  0  0
   -4.8936    8.7803   -8.4947 H   0  0  0  0  0  0  0  0  0  0  0  0
   -2.3246   14.2793   -6.2163 H   0  0  0  0  0  0  0  0  0  0  0  0
   -0.6152   10.5460   -7.5374 H   0  0  0  0  0  0  0  0  0  0  0  0
   -0.1734   15.4251   -5.7269 H   0  0  0  0  0  0  0  0  0  0  0  0
    1.1032   14.8639   -6.8228 H   0  0  0  0  0  0  0  0  0  0  0  0
    1.0431   14.2630   -5.1616 H   0  0  0  0  0  0  0  0  0  0  0  0
   -3.5076   15.3404  -12.5551 H   0  0  0  0  0  0  0  0  0  0  0  0
   -1.1365   14.4228  -12.4281 H   0  0  0  0  0  0  0  0  0  0  0  0
   -1.7094   13.0055  -11.4933 H   0  0  0  0  0  0  0  0  0  0  0  0
   -2.5847   14.5469   -9.6579 H   0  0  0  0  0  0  0  0  0  0  0  0
   -1.9864   15.9623  -10.6317 H   0  0  0  0  0  0  0  0  0  0  0  0
  1  2  2  0  0  0  0
  1  4  1  0  0  0  0
  1 12  1  0  0  0  0
  2  6  1  0  0  0  0
  2 29  1  0  0  0  0
  3  4  2  0  0  0  0
  3  5  1  0  0  0  0
  3 30  1  0  0  0  0
  4 31  1  0  0  0  0
  5  6  2  0  0  0  0
  5  9  1  0  0  0  0
  6  7  1  0  0  0  0
  7  8  2  0  0  0  0
  7 10  1  0  0  0  0
  8  9  1  0  0  0  0
  9 32  1  0  0  0  0
 10 14  1  0  0  0  0
 10 33  1  0  0  0  0
 10 34  1  0  0  0  0
 11 12  1  0  0  0  0
 11 26  1  0  0  0  0
 11 35  1  0  0  0  0
 12 13  2  0  0  0  0
 14 15  2  0  0  0  0
 14 19  1  0  0  0  0
 15 16  1  0  0  0  0
 15 36  1  0  0  0  0
 16 17  2  0  0  0  0
 16 37  1  0  0  0  0
 17 18  1  0  0  0  0
 17 20  1  0  0  0  0
 18 19  2  0  0  0  0
 18 38  1  0  0  0  0
 19 39  1  0  0  0  0
 20 21  2  0  0  0  0
 20 24  1  0  0  0  0
 21 22  1  0  0  0  0
 21 40  1  0  0  0  0
 22 23  1  0  0  0  0
 22 25  1  0  0  0  0
 23 24  2  0  0  0  0
 24 41  1  0  0  0  0
 25 42  1  0  0  0  0
 25 43  1  0  0  0  0
 25 44  1  0  0  0  0
 26 27  1  0  0  0  0
 26 28  1  0  0  0  0
 26 45  1  0  0  0  0
 27 28  1  0  0  0  0
 27 46  1  0  0  0  0
 27 47  1  0  0  0  0
 28 48  1  0  0  0  0
 28 49  1  0  0  0  0
M  END
>  <Name>
33

>  <IC50[uM]>
0.008

$$$$
