@<TRIPOS>MOLECULE
34
 49 53 0 0 0
SMALL
GASTEIGER
****
Structure written by MMmdl.
@<TRIPOS>ATOM
      1 C          -6.4024   12.3461  -12.0147 C.ar    1  LIG1        0.0376
      2 C          -6.5825   11.7781  -10.7426 C.ar    1  LIG1       -0.0387
      3 C          -7.7347   10.5660  -13.0395 C.ar    1  LIG1       -0.0356
      4 C          -6.9966   11.7550  -13.1361 C.ar    1  LIG1       -0.0476
      5 C          -7.8265    9.9936  -11.7632 C.ar    1  LIG1        0.0661
      6 C          -7.2675   10.6024  -10.6199 C.ar    1  LIG1        0.0237
      7 C          -7.6234    9.7358   -9.5255 C.ar    1  LIG1        0.0748
      8 N          -8.2741    8.7136   -9.9910 N.ar    1  LIG1       -0.1774
      9 N          -8.4130    8.8453  -11.3044 N.ar    1  LIG1       -0.2767
     10 C          -7.3406    9.8933   -8.0338 C.3     1  LIG1        0.0171
     11 N          -4.5538   13.8407  -11.3379 N.am    1  LIG1       -0.2860
     12 C          -5.6005   13.6490  -12.1765 C.2     1  LIG1        0.2470
     13 O          -5.9196   14.4808  -13.0199 O.2     1  LIG1       -0.2700
     14 C          -5.9590   10.4855   -7.7382 C.ar    1  LIG1       -0.0415
     15 C          -4.8075    9.7636   -8.0570 C.ar    1  LIG1       -0.0576
     16 C          -3.5513   10.3099   -7.8070 C.ar    1  LIG1       -0.0537
     17 C          -3.4406   11.5840   -7.2355 C.ar    1  LIG1       -0.0149
     18 C          -4.5915   12.3007   -6.9126 C.ar    1  LIG1       -0.0537
     19 C          -5.8470   11.7538   -7.1581 C.ar    1  LIG1       -0.0576
     20 C          -2.0979   12.1738   -6.9691 C.ar    1  LIG1        0.0195
     21 C          -1.7666   13.4166   -6.4372 C.ar    1  LIG1        0.0329
     22 N          -0.4273   13.4768   -6.3903 N.ar    1  LIG1       -0.2739
     23 N           0.1744   12.4049   -6.8247 N.ar    1  LIG1       -0.1793
     24 C          -0.8040   11.5944   -7.2012 C.ar    1  LIG1        0.0571
     25 C           0.3946   14.5874   -5.9129 C.3     1  LIG1        0.0302
     26 C          -4.1104   13.1199  -10.1564 C.3     1  LIG1        0.0801
     27 C          -3.1547   14.2611   -9.9254 C.3     1  LIG1        0.2795
     28 C          -3.7686   15.0454  -11.0979 C.3     1  LIG1        0.0801
     29 F          -3.3454   14.7999   -8.7258 F       1  LIG1       -0.2022
     30 F          -1.8808   13.9286  -10.0717 F       1  LIG1       -0.2022
     31 H          -6.2371   12.2377   -9.8825 H       1  LIG1        0.0632
     32 H          -8.1965   10.1201  -13.9011 H       1  LIG1        0.0639
     33 H          -6.8777   12.2189  -14.1082 H       1  LIG1        0.0626
     34 H          -8.9048    8.1432  -11.8372 H       1  LIG1        0.1889
     35 H          -8.1066   10.5395   -7.5982 H       1  LIG1        0.0377
     36 H          -7.4470    8.9316   -7.5331 H       1  LIG1        0.0377
     37 H          -4.8888    8.7812   -8.5015 H       1  LIG1        0.0621
     38 H          -2.6633    9.7451   -8.0571 H       1  LIG1        0.0624
     39 H          -4.5093   13.2831   -6.4741 H       1  LIG1        0.0624
     40 H          -6.7314   12.3149   -6.9053 H       1  LIG1        0.0621
     41 H          -2.3717   14.2432   -6.0985 H       1  LIG1        0.0832
     42 H          -0.6084   10.6151   -7.6146 H       1  LIG1        0.0854
     43 H          -0.2286   15.4127   -5.5721 H       1  LIG1        0.0473
     44 H           1.0434   14.9448   -6.7174 H       1  LIG1        0.0473
     45 H           1.0235   14.2533   -5.0839 H       1  LIG1        0.0473
     46 H          -3.7139   12.1065  -10.2127 H       1  LIG1        0.0524
     47 H          -4.9207   13.2607   -9.4790 H       1  LIG1        0.0524
     48 H          -4.5371   15.7574  -10.8202 H       1  LIG1        0.0524
     49 H          -3.0553   15.4231  -11.8251 H       1  LIG1        0.0524
@<TRIPOS>BOND
     1     1     2   ar
     2     1     4   ar
     3     1    12    1
     4     2     6   ar
     5     2    31    1
     6     3     4   ar
     7     3     5   ar
     8     3    32    1
     9     4    33    1
    10     5     6   ar
    11     5     9   ar
    12     6     7   ar
    13     7     8   ar
    14     7    10    1
    15     8     9   ar
    16     9    34    1
    17    10    14    1
    18    10    35    1
    19    10    36    1
    20    11    12   am
    21    11    26    1
    22    11    28    1
    23    12    13    2
    24    14    15   ar
    25    14    19   ar
    26    15    16   ar
    27    15    37    1
    28    16    17   ar
    29    16    38    1
    30    17    18   ar
    31    17    20    1
    32    18    19   ar
    33    18    39    1
    34    19    40    1
    35    20    21   ar
    36    20    24   ar
    37    21    22   ar
    38    21    41    1
    39    22    23   ar
    40    22    25    1
    41    23    24   ar
    42    24    42    1
    43    25    43    1
    44    25    44    1
    45    25    45    1
    46    26    27    1
    47    26    46    1
    48    26    47    1
    49    27    28    1
    50    27    29    1
    51    27    30    1
    52    28    48    1
    53    28    49    1
