34
 OpenBabel02152110423D
Structure written by MMmdl.
 49 53  0  0  1  0  0  0  0  0999 V2000
   -6.4024   12.3461  -12.0147 C   0  0  0  0  0  0  0  0  0  0  0  0
   -6.5825   11.7781  -10.7426 C   0  0  0  0  0  0  0  0  0  0  0  0
   -7.7347   10.5660  -13.0395 C   0  0  0  0  0  0  0  0  0  0  0  0
   -6.9966   11.7550  -13.1361 C   0  0  0  0  0  0  0  0  0  0  0  0
   -7.8265    9.9936  -11.7632 C   0  0  0  0  0  0  0  0  0  0  0  0
   -7.2675   10.6024  -10.6199 C   0  0  0  0  0  0  0  0  0  0  0  0
   -7.6234    9.7358   -9.5255 C   0  0  0  0  0  0  0  0  0  0  0  0
   -8.2741    8.7136   -9.9910 N   0  0  0  0  0  0  0  0  0  0  0  0
   -8.4130    8.8453  -11.3044 N   0  0  0  0  0  0  0  0  0  0  0  0
   -7.3406    9.8933   -8.0338 C   0  0  0  0  0  0  0  0  0  0  0  0
   -4.5538   13.8407  -11.3379 N   0  0  0  0  0  0  0  0  0  0  0  0
   -5.6005   13.6490  -12.1765 C   0  0  0  0  0  0  0  0  0  0  0  0
   -5.9196   14.4808  -13.0199 O   0  0  0  0  0  0  0  0  0  0  0  0
   -5.9590   10.4855   -7.7382 C   0  0  0  0  0  0  0  0  0  0  0  0
   -4.8075    9.7636   -8.0570 C   0  0  0  0  0  0  0  0  0  0  0  0
   -3.5513   10.3099   -7.8070 C   0  0  0  0  0  0  0  0  0  0  0  0
   -3.4406   11.5840   -7.2355 C   0  0  0  0  0  0  0  0  0  0  0  0
   -4.5915   12.3007   -6.9126 C   0  0  0  0  0  0  0  0  0  0  0  0
   -5.8470   11.7538   -7.1581 C   0  0  0  0  0  0  0  0  0  0  0  0
   -2.0979   12.1738   -6.9691 C   0  0  0  0  0  0  0  0  0  0  0  0
   -1.7666   13.4166   -6.4372 C   0  0  0  0  0  0  0  0  0  0  0  0
   -0.4273   13.4768   -6.3903 N   0  0  0  0  0  0  0  0  0  0  0  0
    0.1744   12.4049   -6.8247 N   0  0  0  0  0  0  0  0  0  0  0  0
   -0.8040   11.5944   -7.2012 C   0  0  0  0  0  0  0  0  0  0  0  0
    0.3946   14.5874   -5.9129 C   0  0  0  0  0  0  0  0  0  0  0  0
   -4.1104   13.1199  -10.1564 C   0  0  0  0  0  0  0  0  0  0  0  0
   -3.1547   14.2611   -9.9254 C   0  0  0  0  0  0  0  0  0  0  0  0
   -3.7686   15.0454  -11.0979 C   0  0  0  0  0  0  0  0  0  0  0  0
   -3.3454   14.7999   -8.7258 F   0  0  0  0  0  0  0  0  0  0  0  0
   -1.8808   13.9286  -10.0717 F   0  0  0  0  0  0  0  0  0  0  0  0
   -6.2371   12.2377   -9.8825 H   0  0  0  0  0  0  0  0  0  0  0  0
   -8.1965   10.1201  -13.9011 H   0  0  0  0  0  0  0  0  0  0  0  0
   -6.8777   12.2189  -14.1082 H   0  0  0  0  0  0  0  0  0  0  0  0
   -8.9048    8.1432  -11.8372 H   0  0  0  0  0  0  0  0  0  0  0  0
   -8.1066   10.5395   -7.5982 H   0  0  0  0  0  0  0  0  0  0  0  0
   -7.4470    8.9316   -7.5331 H   0  0  0  0  0  0  0  0  0  0  0  0
   -4.8888    8.7812   -8.5015 H   0  0  0  0  0  0  0  0  0  0  0  0
   -2.6633    9.7451   -8.0571 H   0  0  0  0  0  0  0  0  0  0  0  0
   -4.5093   13.2831   -6.4741 H   0  0  0  0  0  0  0  0  0  0  0  0
   -6.7314   12.3149   -6.9053 H   0  0  0  0  0  0  0  0  0  0  0  0
   -2.3717   14.2432   -6.0985 H   0  0  0  0  0  0  0  0  0  0  0  0
   -0.6084   10.6151   -7.6146 H   0  0  0  0  0  0  0  0  0  0  0  0
   -0.2286   15.4127   -5.5721 H   0  0  0  0  0  0  0  0  0  0  0  0
    1.0434   14.9448   -6.7174 H   0  0  0  0  0  0  0  0  0  0  0  0
    1.0235   14.2533   -5.0839 H   0  0  0  0  0  0  0  0  0  0  0  0
   -3.7139   12.1065  -10.2127 H   0  0  0  0  0  0  0  0  0  0  0  0
   -4.9207   13.2607   -9.4790 H   0  0  0  0  0  0  0  0  0  0  0  0
   -4.5371   15.7574  -10.8202 H   0  0  0  0  0  0  0  0  0  0  0  0
   -3.0553   15.4231  -11.8251 H   0  0  0  0  0  0  0  0  0  0  0  0
  1  2  2  0  0  0  0
  1  4  1  0  0  0  0
  1 12  1  0  0  0  0
  2  6  1  0  0  0  0
  2 31  1  0  0  0  0
  3  4  2  0  0  0  0
  3  5  1  0  0  0  0
  3 32  1  0  0  0  0
  4 33  1  0  0  0  0
  5  6  2  0  0  0  0
  5  9  1  0  0  0  0
  6  7  1  0  0  0  0
  7  8  2  0  0  0  0
  7 10  1  0  0  0  0
  8  9  1  0  0  0  0
  9 34  1  0  0  0  0
 10 14  1  0  0  0  0
 10 35  1  0  0  0  0
 10 36  1  0  0  0  0
 11 12  1  0  0  0  0
 11 26  1  0  0  0  0
 11 28  1  0  0  0  0
 12 13  2  0  0  0  0
 14 15  2  0  0  0  0
 14 19  1  0  0  0  0
 15 16  1  0  0  0  0
 15 37  1  0  0  0  0
 16 17  2  0  0  0  0
 16 38  1  0  0  0  0
 17 18  1  0  0  0  0
 17 20  1  0  0  0  0
 18 19  2  0  0  0  0
 18 39  1  0  0  0  0
 19 40  1  0  0  0  0
 20 21  2  0  0  0  0
 20 24  1  0  0  0  0
 21 22  1  0  0  0  0
 21 41  1  0  0  0  0
 22 23  1  0  0  0  0
 22 25  1  0  0  0  0
 23 24  2  0  0  0  0
 24 42  1  0  0  0  0
 25 43  1  0  0  0  0
 25 44  1  0  0  0  0
 25 45  1  0  0  0  0
 26 27  1  0  0  0  0
 26 46  1  0  0  0  0
 26 47  1  0  0  0  0
 27 28  1  0  0  0  0
 27 29  1  0  0  0  0
 27 30  1  0  0  0  0
 28 48  1  0  0  0  0
 28 49  1  0  0  0  0
M  END
>  <Name>
34

>  <IC50[uM]>
0.007

$$$$
