@<TRIPOS>MOLECULE
35
 50 54 0 0 0
SMALL
GASTEIGER
****
Structure written by MMmdl.
@<TRIPOS>ATOM
      1 C          -6.3895   12.3678  -12.0373 C.ar    1  LIG1        0.0376
      2 C          -6.4824   11.8098  -10.7511 C.ar    1  LIG1       -0.0387
      3 C          -7.7271   10.5745  -13.0290 C.ar    1  LIG1       -0.0356
      4 C          -7.0179   11.7711  -13.1287 C.ar    1  LIG1       -0.0476
      5 C          -7.8170   10.0145  -11.7522 C.ar    1  LIG1        0.0661
      6 C          -7.2238   10.6236  -10.6024 C.ar    1  LIG1        0.0237
      7 C          -7.6044    9.7508   -9.5065 C.ar    1  LIG1        0.0748
      8 N          -8.2828    8.7443   -9.9813 N.ar    1  LIG1       -0.1774
      9 N          -8.4172    8.8704  -11.2949 N.ar    1  LIG1       -0.2767
     10 C          -7.3303    9.8854   -8.0203 C.3     1  LIG1        0.0171
     11 N          -4.3418   13.6528  -11.7950 N.am    1  LIG1       -0.2925
     12 C          -5.6106   13.6402  -12.2589 C.2     1  LIG1        0.2468
     13 O          -6.1045   14.5768  -12.8828 O.2     1  LIG1       -0.2700
     14 C          -5.9605   10.4846   -7.7337 C.ar    1  LIG1       -0.0415
     15 C          -4.8084    9.7674   -8.0514 C.ar    1  LIG1       -0.0576
     16 C          -3.5547   10.3189   -7.8020 C.ar    1  LIG1       -0.0537
     17 C          -3.4471   11.5931   -7.2348 C.ar    1  LIG1       -0.0149
     18 C          -4.6026   12.3073   -6.9145 C.ar    1  LIG1       -0.0537
     19 C          -5.8562   11.7556   -7.1614 C.ar    1  LIG1       -0.0576
     20 C          -2.1021   12.1835   -6.9708 C.ar    1  LIG1        0.0195
     21 C          -1.7710   13.4390   -6.4702 C.ar    1  LIG1        0.0329
     22 N          -0.4354   13.4950   -6.4103 N.ar    1  LIG1       -0.2739
     23 N           0.1709   12.4112   -6.8070 N.ar    1  LIG1       -0.1793
     24 C          -0.8030   11.5943   -7.1763 C.ar    1  LIG1        0.0571
     25 C           0.3771   14.6141   -5.9576 C.3     1  LIG1        0.0302
     26 C          -3.4422   12.5360  -11.3947 C.3     1  LIG1        0.0426
     27 C          -2.3230   13.6139  -11.4067 C.3     1  LIG1        0.0866
     28 C          -3.2958   14.6820  -11.9593 C.3     1  LIG1        0.0426
     29 O          -1.7380   13.9356  -10.1565 O.3     1  LIG1       -0.3887
     30 H          -6.0183   12.2923   -9.8986 H       1  LIG1        0.0632
     31 H          -8.1782   10.1163  -13.8942 H       1  LIG1        0.0639
     32 H          -6.9208   12.2371  -14.0985 H       1  LIG1        0.0626
     33 H          -8.9179    8.1685  -11.8303 H       1  LIG1        0.1889
     34 H          -8.0933   10.5376   -7.5920 H       1  LIG1        0.0377
     35 H          -7.4329    8.9217   -7.5144 H       1  LIG1        0.0377
     36 H          -4.8892    8.7843   -8.4947 H       1  LIG1        0.0621
     37 H          -2.6640    9.7586   -8.0484 H       1  LIG1        0.0624
     38 H          -4.5243   13.2889   -6.4732 H       1  LIG1        0.0624
     39 H          -6.7461   12.3134   -6.9147 H       1  LIG1        0.0621
     40 H          -2.3729   14.2791   -6.1621 H       1  LIG1        0.0832
     41 H          -0.6003   10.6048   -7.5653 H       1  LIG1        0.0854
     42 H          -0.2500   15.4509   -5.6516 H       1  LIG1        0.0473
     43 H           1.0339   14.9382   -6.7662 H       1  LIG1        0.0473
     44 H           0.9933   14.2991   -5.1147 H       1  LIG1        0.0473
     45 H          -3.5851   12.0468  -10.4273 H       1  LIG1        0.0490
     46 H          -3.4005   11.8265  -12.2289 H       1  LIG1        0.0490
     47 H          -1.4937   13.3796  -12.0785 H       1  LIG1        0.0625
     48 H          -3.2410   14.9062  -13.0151 H       1  LIG1        0.0490
     49 H          -3.3493   15.5966  -11.3682 H       1  LIG1        0.0490
     50 H          -1.0327   13.3119   -9.9644 H       1  LIG1        0.2099
@<TRIPOS>BOND
     1     1     2   ar
     2     1     4   ar
     3     1    12    1
     4     2     6   ar
     5     2    30    1
     6     3     4   ar
     7     3     5   ar
     8     3    31    1
     9     4    32    1
    10     5     6   ar
    11     5     9   ar
    12     6     7   ar
    13     7     8   ar
    14     7    10    1
    15     8     9   ar
    16     9    33    1
    17    10    14    1
    18    10    34    1
    19    10    35    1
    20    11    12   am
    21    11    26    1
    22    11    28    1
    23    12    13    2
    24    14    15   ar
    25    14    19   ar
    26    15    16   ar
    27    15    36    1
    28    16    17   ar
    29    16    37    1
    30    17    18   ar
    31    17    20    1
    32    18    19   ar
    33    18    38    1
    34    19    39    1
    35    20    21   ar
    36    20    24   ar
    37    21    22   ar
    38    21    40    1
    39    22    23   ar
    40    22    25    1
    41    23    24   ar
    42    24    41    1
    43    25    42    1
    44    25    43    1
    45    25    44    1
    46    26    27    1
    47    26    45    1
    48    26    46    1
    49    27    28    1
    50    27    29    1
    51    27    47    1
    52    28    48    1
    53    28    49    1
    54    29    50    1
