35
 OpenBabel02152110423D
Structure written by MMmdl.
 50 54  0  0  1  0  0  0  0  0999 V2000
   -6.3895   12.3678  -12.0373 C   0  0  0  0  0  0  0  0  0  0  0  0
   -6.4824   11.8098  -10.7511 C   0  0  0  0  0  0  0  0  0  0  0  0
   -7.7271   10.5745  -13.0290 C   0  0  0  0  0  0  0  0  0  0  0  0
   -7.0179   11.7711  -13.1287 C   0  0  0  0  0  0  0  0  0  0  0  0
   -7.8170   10.0145  -11.7522 C   0  0  0  0  0  0  0  0  0  0  0  0
   -7.2238   10.6236  -10.6024 C   0  0  0  0  0  0  0  0  0  0  0  0
   -7.6044    9.7508   -9.5065 C   0  0  0  0  0  0  0  0  0  0  0  0
   -8.2828    8.7443   -9.9813 N   0  0  0  0  0  0  0  0  0  0  0  0
   -8.4172    8.8704  -11.2949 N   0  0  0  0  0  0  0  0  0  0  0  0
   -7.3303    9.8854   -8.0203 C   0  0  0  0  0  0  0  0  0  0  0  0
   -4.3418   13.6528  -11.7950 N   0  0  0  0  0  0  0  0  0  0  0  0
   -5.6106   13.6402  -12.2589 C   0  0  0  0  0  0  0  0  0  0  0  0
   -6.1045   14.5768  -12.8828 O   0  0  0  0  0  0  0  0  0  0  0  0
   -5.9605   10.4846   -7.7337 C   0  0  0  0  0  0  0  0  0  0  0  0
   -4.8084    9.7674   -8.0514 C   0  0  0  0  0  0  0  0  0  0  0  0
   -3.5547   10.3189   -7.8020 C   0  0  0  0  0  0  0  0  0  0  0  0
   -3.4471   11.5931   -7.2348 C   0  0  0  0  0  0  0  0  0  0  0  0
   -4.6026   12.3073   -6.9145 C   0  0  0  0  0  0  0  0  0  0  0  0
   -5.8562   11.7556   -7.1614 C   0  0  0  0  0  0  0  0  0  0  0  0
   -2.1021   12.1835   -6.9708 C   0  0  0  0  0  0  0  0  0  0  0  0
   -1.7710   13.4390   -6.4702 C   0  0  0  0  0  0  0  0  0  0  0  0
   -0.4354   13.4950   -6.4103 N   0  0  0  0  0  0  0  0  0  0  0  0
    0.1709   12.4112   -6.8070 N   0  0  0  0  0  0  0  0  0  0  0  0
   -0.8030   11.5943   -7.1763 C   0  0  0  0  0  0  0  0  0  0  0  0
    0.3771   14.6141   -5.9576 C   0  0  0  0  0  0  0  0  0  0  0  0
   -3.4422   12.5360  -11.3947 C   0  0  0  0  0  0  0  0  0  0  0  0
   -2.3230   13.6139  -11.4067 C   0  0  0  0  0  0  0  0  0  0  0  0
   -3.2958   14.6820  -11.9593 C   0  0  0  0  0  0  0  0  0  0  0  0
   -1.7380   13.9356  -10.1565 O   0  0  0  0  0  0  0  0  0  0  0  0
   -6.0183   12.2923   -9.8986 H   0  0  0  0  0  0  0  0  0  0  0  0
   -8.1782   10.1163  -13.8942 H   0  0  0  0  0  0  0  0  0  0  0  0
   -6.9208   12.2371  -14.0985 H   0  0  0  0  0  0  0  0  0  0  0  0
   -8.9179    8.1685  -11.8303 H   0  0  0  0  0  0  0  0  0  0  0  0
   -8.0933   10.5376   -7.5920 H   0  0  0  0  0  0  0  0  0  0  0  0
   -7.4329    8.9217   -7.5144 H   0  0  0  0  0  0  0  0  0  0  0  0
   -4.8892    8.7843   -8.4947 H   0  0  0  0  0  0  0  0  0  0  0  0
   -2.6640    9.7586   -8.0484 H   0  0  0  0  0  0  0  0  0  0  0  0
   -4.5243   13.2889   -6.4732 H   0  0  0  0  0  0  0  0  0  0  0  0
   -6.7461   12.3134   -6.9147 H   0  0  0  0  0  0  0  0  0  0  0  0
   -2.3729   14.2791   -6.1621 H   0  0  0  0  0  0  0  0  0  0  0  0
   -0.6003   10.6048   -7.5653 H   0  0  0  0  0  0  0  0  0  0  0  0
   -0.2500   15.4509   -5.6516 H   0  0  0  0  0  0  0  0  0  0  0  0
    1.0339   14.9382   -6.7662 H   0  0  0  0  0  0  0  0  0  0  0  0
    0.9933   14.2991   -5.1147 H   0  0  0  0  0  0  0  0  0  0  0  0
   -3.5851   12.0468  -10.4273 H   0  0  0  0  0  0  0  0  0  0  0  0
   -3.4005   11.8265  -12.2289 H   0  0  0  0  0  0  0  0  0  0  0  0
   -1.4937   13.3796  -12.0785 H   0  0  0  0  0  0  0  0  0  0  0  0
   -3.2410   14.9062  -13.0151 H   0  0  0  0  0  0  0  0  0  0  0  0
   -3.3493   15.5966  -11.3682 H   0  0  0  0  0  0  0  0  0  0  0  0
   -1.0327   13.3119   -9.9644 H   0  0  0  0  0  0  0  0  0  0  0  0
  1  2  2  0  0  0  0
  1  4  1  0  0  0  0
  1 12  1  0  0  0  0
  2  6  1  0  0  0  0
  2 30  1  0  0  0  0
  3  4  2  0  0  0  0
  3  5  1  0  0  0  0
  3 31  1  0  0  0  0
  4 32  1  0  0  0  0
  5  6  2  0  0  0  0
  5  9  1  0  0  0  0
  6  7  1  0  0  0  0
  7  8  2  0  0  0  0
  7 10  1  0  0  0  0
  8  9  1  0  0  0  0
  9 33  1  0  0  0  0
 10 14  1  0  0  0  0
 10 34  1  0  0  0  0
 10 35  1  0  0  0  0
 11 12  1  0  0  0  0
 11 26  1  0  0  0  0
 11 28  1  0  0  0  0
 12 13  2  0  0  0  0
 14 15  2  0  0  0  0
 14 19  1  0  0  0  0
 15 16  1  0  0  0  0
 15 36  1  0  0  0  0
 16 17  2  0  0  0  0
 16 37  1  0  0  0  0
 17 18  1  0  0  0  0
 17 20  1  0  0  0  0
 18 19  2  0  0  0  0
 18 38  1  0  0  0  0
 19 39  1  0  0  0  0
 20 21  2  0  0  0  0
 20 24  1  0  0  0  0
 21 22  1  0  0  0  0
 21 40  1  0  0  0  0
 22 23  1  0  0  0  0
 22 25  1  0  0  0  0
 23 24  2  0  0  0  0
 24 41  1  0  0  0  0
 25 42  1  0  0  0  0
 25 43  1  0  0  0  0
 25 44  1  0  0  0  0
 26 27  1  0  0  0  0
 26 45  1  0  0  0  0
 26 46  1  0  0  0  0
 27 28  1  0  0  0  0
 27 29  1  0  0  0  0
 27 47  1  0  0  0  0
 28 48  1  0  0  0  0
 28 49  1  0  0  0  0
 29 50  1  0  0  0  0
M  END
>  <Name>
35

>  <IC50[uM]>
0.004

$$$$
