@<TRIPOS>MOLECULE
36
 53 57 0 0 0
SMALL
GASTEIGER
****
Structure written by MMmdl.
@<TRIPOS>ATOM
      1 C          -6.3988   12.3548  -12.0167 C.ar    1  LIG1        0.0376
      2 C          -6.5634   11.7828  -10.7362 C.ar    1  LIG1       -0.0387
      3 C          -7.7338   10.5694  -13.0370 C.ar    1  LIG1       -0.0356
      4 C          -6.9985   11.7556  -13.1278 C.ar    1  LIG1       -0.0476
      5 C          -7.8247    9.9971  -11.7595 C.ar    1  LIG1        0.0661
      6 C          -7.2595   10.6059  -10.6156 C.ar    1  LIG1        0.0237
      7 C          -7.6196    9.7377   -9.5218 C.ar    1  LIG1        0.0748
      8 N          -8.2737    8.7166   -9.9897 N.ar    1  LIG1       -0.1774
      9 N          -8.4125    8.8485  -11.3029 N.ar    1  LIG1       -0.2767
     10 C          -7.3396    9.8926   -8.0318 C.3     1  LIG1        0.0171
     11 N          -4.5445   13.8618  -11.3707 N.am    1  LIG1       -0.2925
     12 C          -5.5979   13.6472  -12.1806 C.2     1  LIG1        0.2468
     13 O          -5.9190   14.4711  -13.0424 O.2     1  LIG1       -0.2700
     14 C          -5.9590   10.4852   -7.7375 C.ar    1  LIG1       -0.0415
     15 C          -5.8471   11.7541   -7.1585 C.ar    1  LIG1       -0.0576
     16 C          -4.5907   12.3017   -6.9141 C.ar    1  LIG1       -0.0537
     17 C          -3.4394   11.5818   -7.2374 C.ar    1  LIG1       -0.0149
     18 C          -3.5527   10.3083   -7.8066 C.ar    1  LIG1       -0.0537
     19 C          -4.8082    9.7633   -8.0562 C.ar    1  LIG1       -0.0576
     20 C          -2.0898   12.1596   -6.9778 C.ar    1  LIG1        0.0195
     21 C          -1.7390   13.4130   -6.4881 C.ar    1  LIG1        0.0329
     22 N          -0.3978   13.4480   -6.4305 N.ar    1  LIG1       -0.2739
     23 N           0.1868   12.3491   -6.8198 N.ar    1  LIG1       -0.1793
     24 C          -0.8044   11.5467   -7.1770 C.ar    1  LIG1        0.0571
     25 C           0.4420   14.5581   -5.9859 C.3     1  LIG1        0.0302
     26 C          -3.7035   15.0408  -11.2447 C.3     1  LIG1        0.0428
     27 C          -3.1688   14.3872   -9.9709 C.3     1  LIG1        0.0897
     28 C          -4.1668   13.2516  -10.0984 C.3     1  LIG1        0.0428
     29 O          -1.8336   13.9158  -10.0706 O.3     1  LIG1       -0.3767
     30 C          -0.8619   14.9477  -10.1504 C.3     1  LIG1        0.0369
     31 H          -6.1975   12.2414   -9.8778 H       1  LIG1        0.0632
     32 H          -8.1955   10.1215  -13.8981 H       1  LIG1        0.0639
     33 H          -6.8803   12.2209  -14.1051 H       1  LIG1        0.0626
     34 H          -8.9046    8.1451  -11.8366 H       1  LIG1        0.1889
     35 H          -8.1070   10.5375   -7.5971 H       1  LIG1        0.0377
     36 H          -7.4451    8.9300   -7.5335 H       1  LIG1        0.0377
     37 H          -6.7321   12.3147   -6.9056 H       1  LIG1        0.0621
     38 H          -4.5096   13.2839   -6.4750 H       1  LIG1        0.0624
     39 H          -2.6650    9.7438   -8.0571 H       1  LIG1        0.0624
     40 H          -4.8891    8.7810   -8.5010 H       1  LIG1        0.0621
     41 H          -2.3299   14.2629   -6.1859 H       1  LIG1        0.0832
     42 H          -0.6250   10.5486   -7.5510 H       1  LIG1        0.0854
     43 H          -0.1676   15.4074   -5.6822 H       1  LIG1        0.0473
     44 H           1.1055   14.8718   -6.7964 H       1  LIG1        0.0473
     45 H           1.0560   14.2422   -5.1385 H       1  LIG1        0.0473
     46 H          -2.9547   15.2933  -11.9951 H       1  LIG1        0.0491
     47 H          -4.4087   15.8406  -11.0592 H       1  LIG1        0.0491
     48 H          -3.2749   14.9753   -9.0608 H       1  LIG1        0.0627
     49 H          -5.0117   13.4714   -9.4655 H       1  LIG1        0.0491
     50 H          -3.7929   12.2315  -10.0358 H       1  LIG1        0.0491
     51 H           0.1264   14.5023  -10.2505 H       1  LIG1        0.0524
     52 H          -0.8642   15.5647   -9.2515 H       1  LIG1        0.0524
     53 H          -1.0194   15.5931  -11.0166 H       1  LIG1        0.0524
@<TRIPOS>BOND
     1     1     2   ar
     2     1     4   ar
     3     1    12    1
     4     2     6   ar
     5     2    31    1
     6     3     4   ar
     7     3     5   ar
     8     3    32    1
     9     4    33    1
    10     5     6   ar
    11     5     9   ar
    12     6     7   ar
    13     7     8   ar
    14     7    10    1
    15     8     9   ar
    16     9    34    1
    17    10    14    1
    18    10    35    1
    19    10    36    1
    20    11    12   am
    21    11    26    1
    22    11    28    1
    23    12    13    2
    24    14    15   ar
    25    14    19   ar
    26    15    16   ar
    27    15    37    1
    28    16    17   ar
    29    16    38    1
    30    17    18   ar
    31    17    20    1
    32    18    19   ar
    33    18    39    1
    34    19    40    1
    35    20    21   ar
    36    20    24   ar
    37    21    22   ar
    38    21    41    1
    39    22    23   ar
    40    22    25    1
    41    23    24   ar
    42    24    42    1
    43    25    43    1
    44    25    44    1
    45    25    45    1
    46    26    27    1
    47    26    46    1
    48    26    47    1
    49    27    28    1
    50    27    29    1
    51    27    48    1
    52    28    49    1
    53    28    50    1
    54    29    30    1
    55    30    51    1
    56    30    52    1
    57    30    53    1
