36
 OpenBabel02152110423D
Structure written by MMmdl.
 53 57  0  0  1  0  0  0  0  0999 V2000
   -6.3988   12.3548  -12.0167 C   0  0  0  0  0  0  0  0  0  0  0  0
   -6.5634   11.7828  -10.7362 C   0  0  0  0  0  0  0  0  0  0  0  0
   -7.7338   10.5694  -13.0370 C   0  0  0  0  0  0  0  0  0  0  0  0
   -6.9985   11.7556  -13.1278 C   0  0  0  0  0  0  0  0  0  0  0  0
   -7.8247    9.9971  -11.7595 C   0  0  0  0  0  0  0  0  0  0  0  0
   -7.2595   10.6059  -10.6156 C   0  0  0  0  0  0  0  0  0  0  0  0
   -7.6196    9.7377   -9.5218 C   0  0  0  0  0  0  0  0  0  0  0  0
   -8.2737    8.7166   -9.9897 N   0  0  0  0  0  0  0  0  0  0  0  0
   -8.4125    8.8485  -11.3029 N   0  0  0  0  0  0  0  0  0  0  0  0
   -7.3396    9.8926   -8.0318 C   0  0  0  0  0  0  0  0  0  0  0  0
   -4.5445   13.8618  -11.3707 N   0  0  0  0  0  0  0  0  0  0  0  0
   -5.5979   13.6472  -12.1806 C   0  0  0  0  0  0  0  0  0  0  0  0
   -5.9190   14.4711  -13.0424 O   0  0  0  0  0  0  0  0  0  0  0  0
   -5.9590   10.4852   -7.7375 C   0  0  0  0  0  0  0  0  0  0  0  0
   -5.8471   11.7541   -7.1585 C   0  0  0  0  0  0  0  0  0  0  0  0
   -4.5907   12.3017   -6.9141 C   0  0  0  0  0  0  0  0  0  0  0  0
   -3.4394   11.5818   -7.2374 C   0  0  0  0  0  0  0  0  0  0  0  0
   -3.5527   10.3083   -7.8066 C   0  0  0  0  0  0  0  0  0  0  0  0
   -4.8082    9.7633   -8.0562 C   0  0  0  0  0  0  0  0  0  0  0  0
   -2.0898   12.1596   -6.9778 C   0  0  0  0  0  0  0  0  0  0  0  0
   -1.7390   13.4130   -6.4881 C   0  0  0  0  0  0  0  0  0  0  0  0
   -0.3978   13.4480   -6.4305 N   0  0  0  0  0  0  0  0  0  0  0  0
    0.1868   12.3491   -6.8198 N   0  0  0  0  0  0  0  0  0  0  0  0
   -0.8044   11.5467   -7.1770 C   0  0  0  0  0  0  0  0  0  0  0  0
    0.4420   14.5581   -5.9859 C   0  0  0  0  0  0  0  0  0  0  0  0
   -3.7035   15.0408  -11.2447 C   0  0  0  0  0  0  0  0  0  0  0  0
   -3.1688   14.3872   -9.9709 C   0  0  0  0  0  0  0  0  0  0  0  0
   -4.1668   13.2516  -10.0984 C   0  0  0  0  0  0  0  0  0  0  0  0
   -1.8336   13.9158  -10.0706 O   0  0  0  0  0  0  0  0  0  0  0  0
   -0.8619   14.9477  -10.1504 C   0  0  0  0  0  0  0  0  0  0  0  0
   -6.1975   12.2414   -9.8778 H   0  0  0  0  0  0  0  0  0  0  0  0
   -8.1955   10.1215  -13.8981 H   0  0  0  0  0  0  0  0  0  0  0  0
   -6.8803   12.2209  -14.1051 H   0  0  0  0  0  0  0  0  0  0  0  0
   -8.9046    8.1451  -11.8366 H   0  0  0  0  0  0  0  0  0  0  0  0
   -8.1070   10.5375   -7.5971 H   0  0  0  0  0  0  0  0  0  0  0  0
   -7.4451    8.9300   -7.5335 H   0  0  0  0  0  0  0  0  0  0  0  0
   -6.7321   12.3147   -6.9056 H   0  0  0  0  0  0  0  0  0  0  0  0
   -4.5096   13.2839   -6.4750 H   0  0  0  0  0  0  0  0  0  0  0  0
   -2.6650    9.7438   -8.0571 H   0  0  0  0  0  0  0  0  0  0  0  0
   -4.8891    8.7810   -8.5010 H   0  0  0  0  0  0  0  0  0  0  0  0
   -2.3299   14.2629   -6.1859 H   0  0  0  0  0  0  0  0  0  0  0  0
   -0.6250   10.5486   -7.5510 H   0  0  0  0  0  0  0  0  0  0  0  0
   -0.1676   15.4074   -5.6822 H   0  0  0  0  0  0  0  0  0  0  0  0
    1.1055   14.8718   -6.7964 H   0  0  0  0  0  0  0  0  0  0  0  0
    1.0560   14.2422   -5.1385 H   0  0  0  0  0  0  0  0  0  0  0  0
   -2.9547   15.2933  -11.9951 H   0  0  0  0  0  0  0  0  0  0  0  0
   -4.4087   15.8406  -11.0592 H   0  0  0  0  0  0  0  0  0  0  0  0
   -3.2749   14.9753   -9.0608 H   0  0  0  0  0  0  0  0  0  0  0  0
   -5.0117   13.4714   -9.4655 H   0  0  0  0  0  0  0  0  0  0  0  0
   -3.7929   12.2315  -10.0358 H   0  0  0  0  0  0  0  0  0  0  0  0
    0.1264   14.5023  -10.2505 H   0  0  0  0  0  0  0  0  0  0  0  0
   -0.8642   15.5647   -9.2515 H   0  0  0  0  0  0  0  0  0  0  0  0
   -1.0194   15.5931  -11.0166 H   0  0  0  0  0  0  0  0  0  0  0  0
  1  2  2  0  0  0  0
  1  4  1  0  0  0  0
  1 12  1  0  0  0  0
  2  6  1  0  0  0  0
  2 31  1  0  0  0  0
  3  4  2  0  0  0  0
  3  5  1  0  0  0  0
  3 32  1  0  0  0  0
  4 33  1  0  0  0  0
  5  6  2  0  0  0  0
  5  9  1  0  0  0  0
  6  7  1  0  0  0  0
  7  8  2  0  0  0  0
  7 10  1  0  0  0  0
  8  9  1  0  0  0  0
  9 34  1  0  0  0  0
 10 14  1  0  0  0  0
 10 35  1  0  0  0  0
 10 36  1  0  0  0  0
 11 12  1  0  0  0  0
 11 26  1  0  0  0  0
 11 28  1  0  0  0  0
 12 13  2  0  0  0  0
 14 15  2  0  0  0  0
 14 19  1  0  0  0  0
 15 16  1  0  0  0  0
 15 37  1  0  0  0  0
 16 17  2  0  0  0  0
 16 38  1  0  0  0  0
 17 18  1  0  0  0  0
 17 20  1  0  0  0  0
 18 19  2  0  0  0  0
 18 39  1  0  0  0  0
 19 40  1  0  0  0  0
 20 21  2  0  0  0  0
 20 24  1  0  0  0  0
 21 22  1  0  0  0  0
 21 41  1  0  0  0  0
 22 23  1  0  0  0  0
 22 25  1  0  0  0  0
 23 24  2  0  0  0  0
 24 42  1  0  0  0  0
 25 43  1  0  0  0  0
 25 44  1  0  0  0  0
 25 45  1  0  0  0  0
 26 27  1  0  0  0  0
 26 46  1  0  0  0  0
 26 47  1  0  0  0  0
 27 28  1  0  0  0  0
 27 29  1  0  0  0  0
 27 48  1  0  0  0  0
 28 49  1  0  0  0  0
 28 50  1  0  0  0  0
 29 30  1  0  0  0  0
 30 51  1  0  0  0  0
 30 52  1  0  0  0  0
 30 53  1  0  0  0  0
M  END
>  <Name>
36

>  <IC50[uM]>
0.006

$$$$
