@<TRIPOS>MOLECULE
37
 52 56 0 0 0
SMALL
GASTEIGER
****
Structure written by MMmdl.
@<TRIPOS>ATOM
      1 C          -6.3714   12.3591  -12.0053 C.ar    1  LIG1        0.0376
      2 C          -6.5147   11.8055  -10.7304 C.ar    1  LIG1       -0.0387
      3 C          -7.7273   10.5756  -13.0301 C.ar    1  LIG1       -0.0356
      4 C          -6.9920   11.7699  -13.1223 C.ar    1  LIG1       -0.0476
      5 C          -7.8210   10.0087  -11.7569 C.ar    1  LIG1        0.0661
      6 C          -7.2407   10.6185  -10.5997 C.ar    1  LIG1        0.0237
      7 C          -7.6132    9.7471   -9.5123 C.ar    1  LIG1        0.0748
      8 N          -8.2794    8.7320   -9.9893 N.ar    1  LIG1       -0.1774
      9 N          -8.4144    8.8594  -11.3005 N.ar    1  LIG1       -0.2767
     10 C          -7.3370    9.8875   -8.0251 C.3     1  LIG1        0.0171
     11 N          -4.3570   13.7205  -11.5014 N.am    1  LIG1       -0.2975
     12 C          -5.5485   13.6383  -12.1900 C.2     1  LIG1        0.2466
     13 O          -5.9462   14.5274  -12.9449 O.2     1  LIG1       -0.2700
     14 C          -5.9602   10.4847   -7.7357 C.ar    1  LIG1       -0.0415
     15 C          -4.8090    9.7649   -8.0550 C.ar    1  LIG1       -0.0576
     16 C          -3.5517   10.3138   -7.8050 C.ar    1  LIG1       -0.0537
     17 C          -3.4444   11.5886   -7.2367 C.ar    1  LIG1       -0.0149
     18 C          -4.5954   12.3038   -6.9144 C.ar    1  LIG1       -0.0537
     19 C          -5.8508   11.7543   -7.1602 C.ar    1  LIG1       -0.0576
     20 C          -2.1010   12.1799   -6.9735 C.ar    1  LIG1        0.0195
     21 C          -1.7694   13.4361   -6.4722 C.ar    1  LIG1        0.0329
     22 N          -0.4342   13.4933   -6.4118 N.ar    1  LIG1       -0.2739
     23 N           0.1686   12.4094   -6.8087 N.ar    1  LIG1       -0.1793
     24 C          -0.8030   11.5907   -7.1765 C.ar    1  LIG1        0.0571
     25 C           0.3824   14.6122   -5.9578 C.3     1  LIG1        0.0302
     26 C          -3.5015   14.9079  -11.6138 C.3     1  LIG1        0.0150
     27 C          -2.1980   14.4648  -10.9240 C.3     1  LIG1       -0.0357
     28 C          -2.2178   12.9422  -10.9897 C.3     1  LIG1       -0.0357
     29 C          -3.7152   12.5763  -10.8194 C.3     1  LIG1        0.0150
     30 H          -6.0843   12.2887   -9.8671 H       1  LIG1        0.0632
     31 H          -8.1823   10.1184  -13.9027 H       1  LIG1        0.0639
     32 H          -6.8710   12.2321  -14.0913 H       1  LIG1        0.0626
     33 H          -8.9081    8.1519  -11.8353 H       1  LIG1        0.1889
     34 H          -8.1025   10.5369   -7.5942 H       1  LIG1        0.0377
     35 H          -7.4387    8.9228   -7.5261 H       1  LIG1        0.0377
     36 H          -4.8924    8.7824   -8.5002 H       1  LIG1        0.0621
     37 H          -2.6608    9.7523   -8.0520 H       1  LIG1        0.0624
     38 H          -4.5130   13.2841   -6.4735 H       1  LIG1        0.0624
     39 H          -6.7376   12.3146   -6.9110 H       1  LIG1        0.0621
     40 H          -2.3680   14.2762   -6.1614 H       1  LIG1        0.0832
     41 H          -0.5997   10.5977   -7.5606 H       1  LIG1        0.0854
     42 H           1.0415   14.9434   -6.7630 H       1  LIG1        0.0473
     43 H           1.0029   14.3010   -5.1158 H       1  LIG1        0.0473
     44 H          -0.2397   15.4500   -5.6469 H       1  LIG1        0.0473
     45 H          -3.3040   15.1510  -12.6593 H       1  LIG1        0.0465
     46 H          -3.9447   15.7573  -11.0941 H       1  LIG1        0.0465
     47 H          -2.2028   14.7688   -9.8743 H       1  LIG1        0.0281
     48 H          -1.3076   14.9095  -11.3795 H       1  LIG1        0.0281
     49 H          -1.8316   12.6262  -11.9647 H       1  LIG1        0.0281
     50 H          -1.5512   12.4812  -10.2522 H       1  LIG1        0.0281
     51 H          -3.9417   12.6132   -9.7555 H       1  LIG1        0.0465
     52 H          -3.9032   11.5968  -11.2722 H       1  LIG1        0.0465
@<TRIPOS>BOND
     1     1     2   ar
     2     1     4   ar
     3     1    12    1
     4     2     6   ar
     5     2    30    1
     6     3     4   ar
     7     3     5   ar
     8     3    31    1
     9     4    32    1
    10     5     6   ar
    11     5     9   ar
    12     6     7   ar
    13     7     8   ar
    14     7    10    1
    15     8     9   ar
    16     9    33    1
    17    10    14    1
    18    10    34    1
    19    10    35    1
    20    11    12   am
    21    11    26    1
    22    11    29    1
    23    12    13    2
    24    14    15   ar
    25    14    19   ar
    26    15    16   ar
    27    15    36    1
    28    16    17   ar
    29    16    37    1
    30    17    18   ar
    31    17    20    1
    32    18    19   ar
    33    18    38    1
    34    19    39    1
    35    20    21   ar
    36    20    24   ar
    37    21    22   ar
    38    21    40    1
    39    22    23   ar
    40    22    25    1
    41    23    24   ar
    42    24    41    1
    43    25    42    1
    44    25    43    1
    45    25    44    1
    46    26    27    1
    47    26    45    1
    48    26    46    1
    49    27    28    1
    50    27    47    1
    51    27    48    1
    52    28    29    1
    53    28    49    1
    54    28    50    1
    55    29    51    1
    56    29    52    1
