37
 OpenBabel02152110423D
Structure written by MMmdl.
 52 56  0  0  1  0  0  0  0  0999 V2000
   -6.3714   12.3591  -12.0053 C   0  0  0  0  0  0  0  0  0  0  0  0
   -6.5147   11.8055  -10.7304 C   0  0  0  0  0  0  0  0  0  0  0  0
   -7.7273   10.5756  -13.0301 C   0  0  0  0  0  0  0  0  0  0  0  0
   -6.9920   11.7699  -13.1223 C   0  0  0  0  0  0  0  0  0  0  0  0
   -7.8210   10.0087  -11.7569 C   0  0  0  0  0  0  0  0  0  0  0  0
   -7.2407   10.6185  -10.5997 C   0  0  0  0  0  0  0  0  0  0  0  0
   -7.6132    9.7471   -9.5123 C   0  0  0  0  0  0  0  0  0  0  0  0
   -8.2794    8.7320   -9.9893 N   0  0  0  0  0  0  0  0  0  0  0  0
   -8.4144    8.8594  -11.3005 N   0  0  0  0  0  0  0  0  0  0  0  0
   -7.3370    9.8875   -8.0251 C   0  0  0  0  0  0  0  0  0  0  0  0
   -4.3570   13.7205  -11.5014 N   0  0  0  0  0  0  0  0  0  0  0  0
   -5.5485   13.6383  -12.1900 C   0  0  0  0  0  0  0  0  0  0  0  0
   -5.9462   14.5274  -12.9449 O   0  0  0  0  0  0  0  0  0  0  0  0
   -5.9602   10.4847   -7.7357 C   0  0  0  0  0  0  0  0  0  0  0  0
   -4.8090    9.7649   -8.0550 C   0  0  0  0  0  0  0  0  0  0  0  0
   -3.5517   10.3138   -7.8050 C   0  0  0  0  0  0  0  0  0  0  0  0
   -3.4444   11.5886   -7.2367 C   0  0  0  0  0  0  0  0  0  0  0  0
   -4.5954   12.3038   -6.9144 C   0  0  0  0  0  0  0  0  0  0  0  0
   -5.8508   11.7543   -7.1602 C   0  0  0  0  0  0  0  0  0  0  0  0
   -2.1010   12.1799   -6.9735 C   0  0  0  0  0  0  0  0  0  0  0  0
   -1.7694   13.4361   -6.4722 C   0  0  0  0  0  0  0  0  0  0  0  0
   -0.4342   13.4933   -6.4118 N   0  0  0  0  0  0  0  0  0  0  0  0
    0.1686   12.4094   -6.8087 N   0  0  0  0  0  0  0  0  0  0  0  0
   -0.8030   11.5907   -7.1765 C   0  0  0  0  0  0  0  0  0  0  0  0
    0.3824   14.6122   -5.9578 C   0  0  0  0  0  0  0  0  0  0  0  0
   -3.5015   14.9079  -11.6138 C   0  0  0  0  0  0  0  0  0  0  0  0
   -2.1980   14.4648  -10.9240 C   0  0  0  0  0  0  0  0  0  0  0  0
   -2.2178   12.9422  -10.9897 C   0  0  0  0  0  0  0  0  0  0  0  0
   -3.7152   12.5763  -10.8194 C   0  0  0  0  0  0  0  0  0  0  0  0
   -6.0843   12.2887   -9.8671 H   0  0  0  0  0  0  0  0  0  0  0  0
   -8.1823   10.1184  -13.9027 H   0  0  0  0  0  0  0  0  0  0  0  0
   -6.8710   12.2321  -14.0913 H   0  0  0  0  0  0  0  0  0  0  0  0
   -8.9081    8.1519  -11.8353 H   0  0  0  0  0  0  0  0  0  0  0  0
   -8.1025   10.5369   -7.5942 H   0  0  0  0  0  0  0  0  0  0  0  0
   -7.4387    8.9228   -7.5261 H   0  0  0  0  0  0  0  0  0  0  0  0
   -4.8924    8.7824   -8.5002 H   0  0  0  0  0  0  0  0  0  0  0  0
   -2.6608    9.7523   -8.0520 H   0  0  0  0  0  0  0  0  0  0  0  0
   -4.5130   13.2841   -6.4735 H   0  0  0  0  0  0  0  0  0  0  0  0
   -6.7376   12.3146   -6.9110 H   0  0  0  0  0  0  0  0  0  0  0  0
   -2.3680   14.2762   -6.1614 H   0  0  0  0  0  0  0  0  0  0  0  0
   -0.5997   10.5977   -7.5606 H   0  0  0  0  0  0  0  0  0  0  0  0
    1.0415   14.9434   -6.7630 H   0  0  0  0  0  0  0  0  0  0  0  0
    1.0029   14.3010   -5.1158 H   0  0  0  0  0  0  0  0  0  0  0  0
   -0.2397   15.4500   -5.6469 H   0  0  0  0  0  0  0  0  0  0  0  0
   -3.3040   15.1510  -12.6593 H   0  0  0  0  0  0  0  0  0  0  0  0
   -3.9447   15.7573  -11.0941 H   0  0  0  0  0  0  0  0  0  0  0  0
   -2.2028   14.7688   -9.8743 H   0  0  0  0  0  0  0  0  0  0  0  0
   -1.3076   14.9095  -11.3795 H   0  0  0  0  0  0  0  0  0  0  0  0
   -1.8316   12.6262  -11.9647 H   0  0  0  0  0  0  0  0  0  0  0  0
   -1.5512   12.4812  -10.2522 H   0  0  0  0  0  0  0  0  0  0  0  0
   -3.9417   12.6132   -9.7555 H   0  0  0  0  0  0  0  0  0  0  0  0
   -3.9032   11.5968  -11.2722 H   0  0  0  0  0  0  0  0  0  0  0  0
  1  2  2  0  0  0  0
  1  4  1  0  0  0  0
  1 12  1  0  0  0  0
  2  6  1  0  0  0  0
  2 30  1  0  0  0  0
  3  4  2  0  0  0  0
  3  5  1  0  0  0  0
  3 31  1  0  0  0  0
  4 32  1  0  0  0  0
  5  6  2  0  0  0  0
  5  9  1  0  0  0  0
  6  7  1  0  0  0  0
  7  8  2  0  0  0  0
  7 10  1  0  0  0  0
  8  9  1  0  0  0  0
  9 33  1  0  0  0  0
 10 14  1  0  0  0  0
 10 34  1  0  0  0  0
 10 35  1  0  0  0  0
 11 12  1  0  0  0  0
 11 26  1  0  0  0  0
 11 29  1  0  0  0  0
 12 13  2  0  0  0  0
 14 15  2  0  0  0  0
 14 19  1  0  0  0  0
 15 16  1  0  0  0  0
 15 36  1  0  0  0  0
 16 17  2  0  0  0  0
 16 37  1  0  0  0  0
 17 18  1  0  0  0  0
 17 20  1  0  0  0  0
 18 19  2  0  0  0  0
 18 38  1  0  0  0  0
 19 39  1  0  0  0  0
 20 21  2  0  0  0  0
 20 24  1  0  0  0  0
 21 22  1  0  0  0  0
 21 40  1  0  0  0  0
 22 23  1  0  0  0  0
 22 25  1  0  0  0  0
 23 24  2  0  0  0  0
 24 41  1  0  0  0  0
 25 42  1  0  0  0  0
 25 43  1  0  0  0  0
 25 44  1  0  0  0  0
 26 27  1  0  0  0  0
 26 45  1  0  0  0  0
 26 46  1  0  0  0  0
 27 28  1  0  0  0  0
 27 47  1  0  0  0  0
 27 48  1  0  0  0  0
 28 29  1  0  0  0  0
 28 49  1  0  0  0  0
 28 50  1  0  0  0  0
 29 51  1  0  0  0  0
 29 52  1  0  0  0  0
M  END
>  <Name>
37

>  <IC50[uM]>
0.004

$$$$
