@<TRIPOS>MOLECULE
38
 52 56 0 0 0
SMALL
GASTEIGER
****
Structure written by MMmdl.
@<TRIPOS>ATOM
      1 C          -6.3676   12.3632  -12.0183 C.ar    1  LIG1        0.0376
      2 C          -6.5148   11.8066  -10.7373 C.ar    1  LIG1       -0.0387
      3 C          -7.7147   10.5754  -13.0306 C.ar    1  LIG1       -0.0356
      4 C          -6.9819   11.7689  -13.1253 C.ar    1  LIG1       -0.0476
      5 C          -7.8143   10.0109  -11.7564 C.ar    1  LIG1        0.0661
      6 C          -7.2414   10.6177  -10.6023 C.ar    1  LIG1        0.0237
      7 C          -7.6126    9.7466   -9.5122 C.ar    1  LIG1        0.0748
      8 N          -8.2846    8.7319   -9.9810 N.ar    1  LIG1       -0.1774
      9 N          -8.4146    8.8618  -11.2972 N.ar    1  LIG1       -0.2767
     10 C          -7.3363    9.8918   -8.0268 C.3     1  LIG1        0.0171
     11 N          -4.3648   13.7196  -11.5032 N.am    1  LIG1       -0.2917
     12 C          -5.5453   13.6325  -12.1937 C.2     1  LIG1        0.2468
     13 O          -5.9402   14.5231  -12.9481 O.2     1  LIG1       -0.2700
     14 C          -5.9634   10.4852   -7.7356 C.ar    1  LIG1       -0.0415
     15 C          -4.8111    9.7655   -8.0524 C.ar    1  LIG1       -0.0576
     16 C          -3.5521   10.3143   -7.8018 C.ar    1  LIG1       -0.0537
     17 C          -3.4442   11.5871   -7.2318 C.ar    1  LIG1       -0.0149
     18 C          -4.5964   12.3037   -6.9134 C.ar    1  LIG1       -0.0537
     19 C          -5.8531   11.7536   -7.1622 C.ar    1  LIG1       -0.0576
     20 C          -2.1000   12.1772   -6.9659 C.ar    1  LIG1        0.0195
     21 C          -1.7711   13.4213   -6.4318 C.ar    1  LIG1        0.0329
     22 N          -0.4319   13.4866   -6.3915 N.ar    1  LIG1       -0.2739
     23 N           0.1707   12.4146   -6.8487 N.ar    1  LIG1       -0.1793
     24 C          -0.8042   11.5996   -7.2054 C.ar    1  LIG1        0.0571
     25 C           0.3852   14.5927   -5.9060 C.3     1  LIG1        0.0302
     26 C          -3.7189   12.5724  -10.8441 C.3     1  LIG1        0.0784
     27 C          -2.2354   12.9457  -10.9732 C.3     1  LIG1        0.2657
     28 C          -2.1905   14.4637  -10.9533 C.3     1  LIG1        0.0281
     29 C          -3.5123   14.9092  -11.5998 C.3     1  LIG1        0.0207
     30 F          -1.7098   12.4700  -12.1164 F       1  LIG1       -0.2039
     31 F          -1.5166   12.4356   -9.9564 F       1  LIG1       -0.2039
     32 H          -6.0854   12.2873   -9.8679 H       1  LIG1        0.0632
     33 H          -8.1679   10.1186  -13.8995 H       1  LIG1        0.0639
     34 H          -6.8666   12.2247  -14.0971 H       1  LIG1        0.0626
     35 H          -8.9103    8.1575  -11.8383 H       1  LIG1        0.1889
     36 H          -8.0986   10.5466   -7.5979 H       1  LIG1        0.0377
     37 H          -7.4470    8.9289   -7.5188 H       1  LIG1        0.0377
     38 H          -4.8883    8.7824   -8.4957 H       1  LIG1        0.0621
     39 H          -2.6652    9.7513   -8.0474 H       1  LIG1        0.0624
     40 H          -4.5192   13.2882   -6.4744 H       1  LIG1        0.0624
     41 H          -6.7396   12.3174   -6.9137 H       1  LIG1        0.0621
     42 H          -2.3784   14.2455   -6.0873 H       1  LIG1        0.0832
     43 H          -0.6046   10.6289   -7.6232 H       1  LIG1        0.0854
     44 H          -0.2453   15.4154   -5.5642 H       1  LIG1        0.0473
     45 H           1.0272   14.9481   -6.7089 H       1  LIG1        0.0473
     46 H           1.0083   14.2549   -5.0808 H       1  LIG1        0.0473
     47 H          -3.9411   12.5479   -9.7813 H       1  LIG1        0.0523
     48 H          -3.8894   11.5999  -11.3211 H       1  LIG1        0.0523
     49 H          -2.1219   14.8121   -9.9254 H       1  LIG1        0.0338
     50 H          -1.3187   14.8698  -11.4768 H       1  LIG1        0.0338
     51 H          -3.3209   15.2060  -12.6318 H       1  LIG1        0.0466
     52 H          -3.9535   15.7329  -11.0386 H       1  LIG1        0.0466
@<TRIPOS>BOND
     1     1     2   ar
     2     1     4   ar
     3     1    12    1
     4     2     6   ar
     5     2    32    1
     6     3     4   ar
     7     3     5   ar
     8     3    33    1
     9     4    34    1
    10     5     6   ar
    11     5     9   ar
    12     6     7   ar
    13     7     8   ar
    14     7    10    1
    15     8     9   ar
    16     9    35    1
    17    10    14    1
    18    10    36    1
    19    10    37    1
    20    11    12   am
    21    11    26    1
    22    11    29    1
    23    12    13    2
    24    14    15   ar
    25    14    19   ar
    26    15    16   ar
    27    15    38    1
    28    16    17   ar
    29    16    39    1
    30    17    18   ar
    31    17    20    1
    32    18    19   ar
    33    18    40    1
    34    19    41    1
    35    20    21   ar
    36    20    24   ar
    37    21    22   ar
    38    21    42    1
    39    22    23   ar
    40    22    25    1
    41    23    24   ar
    42    24    43    1
    43    25    44    1
    44    25    45    1
    45    25    46    1
    46    26    27    1
    47    26    47    1
    48    26    48    1
    49    27    28    1
    50    27    30    1
    51    27    31    1
    52    28    29    1
    53    28    49    1
    54    28    50    1
    55    29    51    1
    56    29    52    1
