38
 OpenBabel02152110423D
Structure written by MMmdl.
 52 56  0  0  1  0  0  0  0  0999 V2000
   -6.3676   12.3632  -12.0183 C   0  0  0  0  0  0  0  0  0  0  0  0
   -6.5148   11.8066  -10.7373 C   0  0  0  0  0  0  0  0  0  0  0  0
   -7.7147   10.5754  -13.0306 C   0  0  0  0  0  0  0  0  0  0  0  0
   -6.9819   11.7689  -13.1253 C   0  0  0  0  0  0  0  0  0  0  0  0
   -7.8143   10.0109  -11.7564 C   0  0  0  0  0  0  0  0  0  0  0  0
   -7.2414   10.6177  -10.6023 C   0  0  0  0  0  0  0  0  0  0  0  0
   -7.6126    9.7466   -9.5122 C   0  0  0  0  0  0  0  0  0  0  0  0
   -8.2846    8.7319   -9.9810 N   0  0  0  0  0  0  0  0  0  0  0  0
   -8.4146    8.8618  -11.2972 N   0  0  0  0  0  0  0  0  0  0  0  0
   -7.3363    9.8918   -8.0268 C   0  0  0  0  0  0  0  0  0  0  0  0
   -4.3648   13.7196  -11.5032 N   0  0  0  0  0  0  0  0  0  0  0  0
   -5.5453   13.6325  -12.1937 C   0  0  0  0  0  0  0  0  0  0  0  0
   -5.9402   14.5231  -12.9481 O   0  0  0  0  0  0  0  0  0  0  0  0
   -5.9634   10.4852   -7.7356 C   0  0  0  0  0  0  0  0  0  0  0  0
   -4.8111    9.7655   -8.0524 C   0  0  0  0  0  0  0  0  0  0  0  0
   -3.5521   10.3143   -7.8018 C   0  0  0  0  0  0  0  0  0  0  0  0
   -3.4442   11.5871   -7.2318 C   0  0  0  0  0  0  0  0  0  0  0  0
   -4.5964   12.3037   -6.9134 C   0  0  0  0  0  0  0  0  0  0  0  0
   -5.8531   11.7536   -7.1622 C   0  0  0  0  0  0  0  0  0  0  0  0
   -2.1000   12.1772   -6.9659 C   0  0  0  0  0  0  0  0  0  0  0  0
   -1.7711   13.4213   -6.4318 C   0  0  0  0  0  0  0  0  0  0  0  0
   -0.4319   13.4866   -6.3915 N   0  0  0  0  0  0  0  0  0  0  0  0
    0.1707   12.4146   -6.8487 N   0  0  0  0  0  0  0  0  0  0  0  0
   -0.8042   11.5996   -7.2054 C   0  0  0  0  0  0  0  0  0  0  0  0
    0.3852   14.5927   -5.9060 C   0  0  0  0  0  0  0  0  0  0  0  0
   -3.7189   12.5724  -10.8441 C   0  0  0  0  0  0  0  0  0  0  0  0
   -2.2354   12.9457  -10.9732 C   0  0  0  0  0  0  0  0  0  0  0  0
   -2.1905   14.4637  -10.9533 C   0  0  0  0  0  0  0  0  0  0  0  0
   -3.5123   14.9092  -11.5998 C   0  0  0  0  0  0  0  0  0  0  0  0
   -1.7098   12.4700  -12.1164 F   0  0  0  0  0  0  0  0  0  0  0  0
   -1.5166   12.4356   -9.9564 F   0  0  0  0  0  0  0  0  0  0  0  0
   -6.0854   12.2873   -9.8679 H   0  0  0  0  0  0  0  0  0  0  0  0
   -8.1679   10.1186  -13.8995 H   0  0  0  0  0  0  0  0  0  0  0  0
   -6.8666   12.2247  -14.0971 H   0  0  0  0  0  0  0  0  0  0  0  0
   -8.9103    8.1575  -11.8383 H   0  0  0  0  0  0  0  0  0  0  0  0
   -8.0986   10.5466   -7.5979 H   0  0  0  0  0  0  0  0  0  0  0  0
   -7.4470    8.9289   -7.5188 H   0  0  0  0  0  0  0  0  0  0  0  0
   -4.8883    8.7824   -8.4957 H   0  0  0  0  0  0  0  0  0  0  0  0
   -2.6652    9.7513   -8.0474 H   0  0  0  0  0  0  0  0  0  0  0  0
   -4.5192   13.2882   -6.4744 H   0  0  0  0  0  0  0  0  0  0  0  0
   -6.7396   12.3174   -6.9137 H   0  0  0  0  0  0  0  0  0  0  0  0
   -2.3784   14.2455   -6.0873 H   0  0  0  0  0  0  0  0  0  0  0  0
   -0.6046   10.6289   -7.6232 H   0  0  0  0  0  0  0  0  0  0  0  0
   -0.2453   15.4154   -5.5642 H   0  0  0  0  0  0  0  0  0  0  0  0
    1.0272   14.9481   -6.7089 H   0  0  0  0  0  0  0  0  0  0  0  0
    1.0083   14.2549   -5.0808 H   0  0  0  0  0  0  0  0  0  0  0  0
   -3.9411   12.5479   -9.7813 H   0  0  0  0  0  0  0  0  0  0  0  0
   -3.8894   11.5999  -11.3211 H   0  0  0  0  0  0  0  0  0  0  0  0
   -2.1219   14.8121   -9.9254 H   0  0  0  0  0  0  0  0  0  0  0  0
   -1.3187   14.8698  -11.4768 H   0  0  0  0  0  0  0  0  0  0  0  0
   -3.3209   15.2060  -12.6318 H   0  0  0  0  0  0  0  0  0  0  0  0
   -3.9535   15.7329  -11.0386 H   0  0  0  0  0  0  0  0  0  0  0  0
  1  2  2  0  0  0  0
  1  4  1  0  0  0  0
  1 12  1  0  0  0  0
  2  6  1  0  0  0  0
  2 32  1  0  0  0  0
  3  4  2  0  0  0  0
  3  5  1  0  0  0  0
  3 33  1  0  0  0  0
  4 34  1  0  0  0  0
  5  6  2  0  0  0  0
  5  9  1  0  0  0  0
  6  7  1  0  0  0  0
  7  8  2  0  0  0  0
  7 10  1  0  0  0  0
  8  9  1  0  0  0  0
  9 35  1  0  0  0  0
 10 14  1  0  0  0  0
 10 36  1  0  0  0  0
 10 37  1  0  0  0  0
 11 12  1  0  0  0  0
 11 26  1  0  0  0  0
 11 29  1  0  0  0  0
 12 13  2  0  0  0  0
 14 15  2  0  0  0  0
 14 19  1  0  0  0  0
 15 16  1  0  0  0  0
 15 38  1  0  0  0  0
 16 17  2  0  0  0  0
 16 39  1  0  0  0  0
 17 18  1  0  0  0  0
 17 20  1  0  0  0  0
 18 19  2  0  0  0  0
 18 40  1  0  0  0  0
 19 41  1  0  0  0  0
 20 21  2  0  0  0  0
 20 24  1  0  0  0  0
 21 22  1  0  0  0  0
 21 42  1  0  0  0  0
 22 23  1  0  0  0  0
 22 25  1  0  0  0  0
 23 24  2  0  0  0  0
 24 43  1  0  0  0  0
 25 44  1  0  0  0  0
 25 45  1  0  0  0  0
 25 46  1  0  0  0  0
 26 27  1  0  0  0  0
 26 47  1  0  0  0  0
 26 48  1  0  0  0  0
 27 28  1  0  0  0  0
 27 30  1  0  0  0  0
 27 31  1  0  0  0  0
 28 29  1  0  0  0  0
 28 49  1  0  0  0  0
 28 50  1  0  0  0  0
 29 51  1  0  0  0  0
 29 52  1  0  0  0  0
M  END
>  <Name>
38

>  <IC50[uM]>
0.005

$$$$
