39
 OpenBabel02152110423D
Structure written by MMmdl.
 53 57  0  0  1  0  0  0  0  0999 V2000
   -6.3502   12.3553  -12.0171 C   0  0  0  0  0  0  0  0  0  0  0  0
   -6.4935   11.7977  -10.7426 C   0  0  0  0  0  0  0  0  0  0  0  0
   -7.7106   10.5751  -13.0385 C   0  0  0  0  0  0  0  0  0  0  0  0
   -6.9725   11.7720  -13.1357 C   0  0  0  0  0  0  0  0  0  0  0  0
   -7.8130   10.0109  -11.7654 C   0  0  0  0  0  0  0  0  0  0  0  0
   -7.2309   10.6170  -10.6058 C   0  0  0  0  0  0  0  0  0  0  0  0
   -7.6111    9.7517   -9.5147 C   0  0  0  0  0  0  0  0  0  0  0  0
   -8.2865    8.7392   -9.9897 N   0  0  0  0  0  0  0  0  0  0  0  0
   -8.4152    8.8682  -11.3006 N   0  0  0  0  0  0  0  0  0  0  0  0
   -7.3373    9.8888   -8.0252 C   0  0  0  0  0  0  0  0  0  0  0  0
   -4.3541   13.7129  -11.4635 N   0  0  0  0  0  0  0  0  0  0  0  0
   -5.5361   13.6428  -12.1728 C   0  0  0  0  0  0  0  0  0  0  0  0
   -5.9526   14.5668  -12.8773 O   0  0  0  0  0  0  0  0  0  0  0  0
   -5.9623   10.4854   -7.7364 C   0  0  0  0  0  0  0  0  0  0  0  0
   -5.8532   11.7571   -7.1646 C   0  0  0  0  0  0  0  0  0  0  0  0
   -4.5945   12.3064   -6.9180 C   0  0  0  0  0  0  0  0  0  0  0  0
   -3.4446   11.5858   -7.2382 C   0  0  0  0  0  0  0  0  0  0  0  0
   -3.5555   10.3115   -7.8022 C   0  0  0  0  0  0  0  0  0  0  0  0
   -4.8126    9.7649   -8.0516 C   0  0  0  0  0  0  0  0  0  0  0  0
   -2.0930   12.1652   -6.9785 C   0  0  0  0  0  0  0  0  0  0  0  0
   -1.7427   13.4236   -6.4970 C   0  0  0  0  0  0  0  0  0  0  0  0
   -0.4061   13.4591   -6.4324 N   0  0  0  0  0  0  0  0  0  0  0  0
    0.1810   12.3567   -6.8070 N   0  0  0  0  0  0  0  0  0  0  0  0
   -0.8030   11.5520   -7.1701 C   0  0  0  0  0  0  0  0  0  0  0  0
    0.4260   14.5701   -5.9973 C   0  0  0  0  0  0  0  0  0  0  0  0
   -3.6444   15.0059  -11.3286 C   0  0  0  0  0  0  0  0  0  0  0  0
   -2.1848   14.8660  -11.7465 C   0  0  0  0  0  0  0  0  0  0  0  0
   -1.5251   13.6965  -11.2881 O   0  0  0  0  0  0  0  0  0  0  0  0
   -2.2131   12.5012  -11.6333 C   0  0  0  0  0  0  0  0  0  0  0  0
   -3.6517   12.4721  -11.0120 C   0  0  0  0  0  0  0  0  0  0  0  0
   -6.0533   12.2782   -9.8788 H   0  0  0  0  0  0  0  0  0  0  0  0
   -8.1683   10.1179  -13.9100 H   0  0  0  0  0  0  0  0  0  0  0  0
   -6.8596   12.2364  -14.1027 H   0  0  0  0  0  0  0  0  0  0  0  0
   -8.9137    8.1596  -11.8366 H   0  0  0  0  0  0  0  0  0  0  0  0
   -8.0978   10.5418   -7.5943 H   0  0  0  0  0  0  0  0  0  0  0  0
   -7.4385    8.9249   -7.5194 H   0  0  0  0  0  0  0  0  0  0  0  0
   -6.7416   12.3179   -6.9181 H   0  0  0  0  0  0  0  0  0  0  0  0
   -4.5106   13.2874   -6.4775 H   0  0  0  0  0  0  0  0  0  0  0  0
   -2.6670    9.7484   -8.0467 H   0  0  0  0  0  0  0  0  0  0  0  0
   -4.8951    8.7812   -8.4943 H   0  0  0  0  0  0  0  0  0  0  0  0
   -2.3284   14.2801   -6.2040 H   0  0  0  0  0  0  0  0  0  0  0  0
   -0.6137   10.5521   -7.5405 H   0  0  0  0  0  0  0  0  0  0  0  0
   -0.1842   15.4249   -5.7096 H   0  0  0  0  0  0  0  0  0  0  0  0
    1.0950   14.8685   -6.8061 H   0  0  0  0  0  0  0  0  0  0  0  0
    1.0338   14.2620   -5.1464 H   0  0  0  0  0  0  0  0  0  0  0  0
   -4.1459   15.8371  -11.8396 H   0  0  0  0  0  0  0  0  0  0  0  0
   -3.5784   15.1813  -10.2625 H   0  0  0  0  0  0  0  0  0  0  0  0
   -2.2664   14.7763  -12.8186 H   0  0  0  0  0  0  0  0  0  0  0  0
   -1.5962   15.7735  -11.5993 H   0  0  0  0  0  0  0  0  0  0  0  0
   -2.2364   12.3970  -12.7259 H   0  0  0  0  0  0  0  0  0  0  0  0
   -1.6061   11.6676  -11.2795 H   0  0  0  0  0  0  0  0  0  0  0  0
   -4.1100   11.5362  -11.3555 H   0  0  0  0  0  0  0  0  0  0  0  0
   -3.5548   12.5406   -9.9299 H   0  0  0  0  0  0  0  0  0  0  0  0
  1  2  2  0  0  0  0
  1  4  1  0  0  0  0
  1 12  1  0  0  0  0
  2  6  1  0  0  0  0
  2 31  1  0  0  0  0
  3  4  2  0  0  0  0
  3  5  1  0  0  0  0
  3 32  1  0  0  0  0
  4 33  1  0  0  0  0
  5  6  2  0  0  0  0
  5  9  1  0  0  0  0
  6  7  1  0  0  0  0
  7  8  2  0  0  0  0
  7 10  1  0  0  0  0
  8  9  1  0  0  0  0
  9 34  1  0  0  0  0
 10 14  1  0  0  0  0
 10 35  1  0  0  0  0
 10 36  1  0  0  0  0
 11 12  1  0  0  0  0
 11 26  1  0  0  0  0
 11 30  1  0  0  0  0
 12 13  2  0  0  0  0
 14 15  2  0  0  0  0
 14 19  1  0  0  0  0
 15 16  1  0  0  0  0
 15 37  1  0  0  0  0
 16 17  2  0  0  0  0
 16 38  1  0  0  0  0
 17 18  1  0  0  0  0
 17 20  1  0  0  0  0
 18 19  2  0  0  0  0
 18 39  1  0  0  0  0
 19 40  1  0  0  0  0
 20 21  2  0  0  0  0
 20 24  1  0  0  0  0
 21 22  1  0  0  0  0
 21 41  1  0  0  0  0
 22 23  1  0  0  0  0
 22 25  1  0  0  0  0
 23 24  2  0  0  0  0
 24 42  1  0  0  0  0
 25 43  1  0  0  0  0
 25 44  1  0  0  0  0
 25 45  1  0  0  0  0
 26 27  1  0  0  0  0
 26 46  1  0  0  0  0
 26 47  1  0  0  0  0
 27 28  1  0  0  0  0
 27 48  1  0  0  0  0
 27 49  1  0  0  0  0
 28 29  1  0  0  0  0
 29 30  1  0  0  0  0
 29 50  1  0  0  0  0
 29 51  1  0  0  0  0
 30 52  1  0  0  0  0
 30 53  1  0  0  0  0
M  END
>  <Name>
39

>  <IC50[uM]>
0.004

$$$$
