40
 OpenBabel02152110423D
Structure written by MMmdl.
 54 58  0  0  1  0  0  0  0  0999 V2000
   -6.3583   12.3628  -12.0152 C   0  0  0  0  0  0  0  0  0  0  0  0
   -6.5007   11.8020  -10.7383 C   0  0  0  0  0  0  0  0  0  0  0  0
   -7.7096   10.5772  -13.0382 C   0  0  0  0  0  0  0  0  0  0  0  0
   -6.9777   11.7759  -13.1307 C   0  0  0  0  0  0  0  0  0  0  0  0
   -7.8132   10.0130  -11.7619 C   0  0  0  0  0  0  0  0  0  0  0  0
   -7.2338   10.6200  -10.6051 C   0  0  0  0  0  0  0  0  0  0  0  0
   -7.6121    9.7513   -9.5135 C   0  0  0  0  0  0  0  0  0  0  0  0
   -8.2831    8.7414   -9.9888 N   0  0  0  0  0  0  0  0  0  0  0  0
   -8.4159    8.8683  -11.3018 N   0  0  0  0  0  0  0  0  0  0  0  0
   -7.3364    9.8882   -8.0249 C   0  0  0  0  0  0  0  0  0  0  0  0
   -4.3745   13.7307  -11.4480 N   0  0  0  0  0  0  0  0  0  0  0  0
   -5.5401   13.6479  -12.1823 C   0  0  0  0  0  0  0  0  0  0  0  0
   -5.9305   14.5456  -12.9289 O   0  0  0  0  0  0  0  0  0  0  0  0
   -5.9622   10.4857   -7.7364 C   0  0  0  0  0  0  0  0  0  0  0  0
   -4.8106    9.7658   -8.0516 C   0  0  0  0  0  0  0  0  0  0  0  0
   -3.5548   10.3163   -7.8015 C   0  0  0  0  0  0  0  0  0  0  0  0
   -3.4456   11.5910   -7.2371 C   0  0  0  0  0  0  0  0  0  0  0  0
   -4.5995   12.3069   -6.9174 C   0  0  0  0  0  0  0  0  0  0  0  0
   -5.8550   11.7570   -7.1647 C   0  0  0  0  0  0  0  0  0  0  0  0
   -2.1008   12.1810   -6.9758 C   0  0  0  0  0  0  0  0  0  0  0  0
   -1.7660   13.4388   -6.4773 C   0  0  0  0  0  0  0  0  0  0  0  0
   -0.4314   13.4905   -6.4174 N   0  0  0  0  0  0  0  0  0  0  0  0
    0.1713   12.4042   -6.8124 N   0  0  0  0  0  0  0  0  0  0  0  0
   -0.8030   11.5879   -7.1791 C   0  0  0  0  0  0  0  0  0  0  0  0
    0.3850   14.6084   -5.9658 C   0  0  0  0  0  0  0  0  0  0  0  0
   -3.6973   12.5089  -10.9175 C   0  0  0  0  0  0  0  0  0  0  0  0
   -2.2248   12.4637  -11.4426 C   0  0  0  0  0  0  0  0  0  0  0  0
   -1.4987   13.7622  -11.0653 N   0  0  0  0  0  0  0  0  0  0  0  0
   -2.2038   14.9363  -11.7527 C   0  0  0  0  0  0  0  0  0  0  0  0
   -3.6757   15.0331  -11.3164 C   0  0  0  0  0  0  0  0  0  0  0  0
   -6.0576   12.2794   -9.8741 H   0  0  0  0  0  0  0  0  0  0  0  0
   -8.1618   10.1180  -13.9096 H   0  0  0  0  0  0  0  0  0  0  0  0
   -6.8627   12.2402  -14.0994 H   0  0  0  0  0  0  0  0  0  0  0  0
   -8.9144    8.1615  -11.8374 H   0  0  0  0  0  0  0  0  0  0  0  0
   -8.0961   10.5439   -7.5948 H   0  0  0  0  0  0  0  0  0  0  0  0
   -7.4395    8.9258   -7.5160 H   0  0  0  0  0  0  0  0  0  0  0  0
   -4.8927    8.7818   -8.4930 H   0  0  0  0  0  0  0  0  0  0  0  0
   -2.6634    9.7542   -8.0449 H   0  0  0  0  0  0  0  0  0  0  0  0
   -4.5193   13.2884   -6.4757 H   0  0  0  0  0  0  0  0  0  0  0  0
   -6.7435   12.3170   -6.9183 H   0  0  0  0  0  0  0  0  0  0  0  0
   -2.3645   14.2802   -6.1683 H   0  0  0  0  0  0  0  0  0  0  0  0
   -0.6001   10.5957   -7.5620 H   0  0  0  0  0  0  0  0  0  0  0  0
   -0.2377   15.4493   -5.6626 H   0  0  0  0  0  0  0  0  0  0  0  0
    1.0462   14.9289   -6.7713 H   0  0  0  0  0  0  0  0  0  0  0  0
    0.9992   14.2960   -5.1216 H   0  0  0  0  0  0  0  0  0  0  0  0
   -4.1358   11.5686  -11.2816 H   0  0  0  0  0  0  0  0  0  0  0  0
   -3.6934   12.5388   -9.8270 H   0  0  0  0  0  0  0  0  0  0  0  0
   -2.1213   12.3537  -12.5312 H   0  0  0  0  0  0  0  0  0  0  0  0
   -1.6337   11.6737  -10.9669 H   0  0  0  0  0  0  0  0  0  0  0  0
   -0.5199   13.7316  -11.3435 H   0  0  0  0  0  0  0  0  0  0  0  0
   -2.1273   14.7832  -12.8186 H   0  0  0  0  0  0  0  0  0  0  0  0
   -1.6221   15.8316  -11.5127 H   0  0  0  0  0  0  0  0  0  0  0  0
   -4.1533   15.8523  -11.8646 H   0  0  0  0  0  0  0  0  0  0  0  0
   -3.6812   15.2813  -10.2566 H   0  0  0  0  0  0  0  0  0  0  0  0
  1  2  2  0  0  0  0
  1  4  1  0  0  0  0
  1 12  1  0  0  0  0
  2  6  1  0  0  0  0
  2 31  1  0  0  0  0
  3  4  2  0  0  0  0
  3  5  1  0  0  0  0
  3 32  1  0  0  0  0
  4 33  1  0  0  0  0
  5  6  2  0  0  0  0
  5  9  1  0  0  0  0
  6  7  1  0  0  0  0
  7  8  2  0  0  0  0
  7 10  1  0  0  0  0
  8  9  1  0  0  0  0
  9 34  1  0  0  0  0
 10 14  1  0  0  0  0
 10 35  1  0  0  0  0
 10 36  1  0  0  0  0
 11 12  1  0  0  0  0
 11 26  1  0  0  0  0
 11 30  1  0  0  0  0
 12 13  2  0  0  0  0
 14 15  2  0  0  0  0
 14 19  1  0  0  0  0
 15 16  1  0  0  0  0
 15 37  1  0  0  0  0
 16 17  2  0  0  0  0
 16 38  1  0  0  0  0
 17 18  1  0  0  0  0
 17 20  1  0  0  0  0
 18 19  2  0  0  0  0
 18 39  1  0  0  0  0
 19 40  1  0  0  0  0
 20 21  2  0  0  0  0
 20 24  1  0  0  0  0
 21 22  1  0  0  0  0
 21 41  1  0  0  0  0
 22 23  1  0  0  0  0
 22 25  1  0  0  0  0
 23 24  2  0  0  0  0
 24 42  1  0  0  0  0
 25 43  1  0  0  0  0
 25 44  1  0  0  0  0
 25 45  1  0  0  0  0
 26 27  1  0  0  0  0
 26 46  1  0  0  0  0
 26 47  1  0  0  0  0
 27 28  1  0  0  0  0
 27 48  1  0  0  0  0
 27 49  1  0  0  0  0
 28 29  1  0  0  0  0
 28 50  1  0  0  0  0
 29 30  1  0  0  0  0
 29 51  1  0  0  0  0
 29 52  1  0  0  0  0
 30 53  1  0  0  0  0
 30 54  1  0  0  0  0
M  END
>  <Name>
40

>  <IC50[uM]>
0.007

$$$$
