@<TRIPOS>MOLECULE
41
 55 59 0 0 0
SMALL
GASTEIGER
****
Structure written by MMmdl.
@<TRIPOS>ATOM
      1 C          -6.3365   12.3514  -12.0169 C.ar    1  LIG1        0.0376
      2 C          -6.4737   11.7818  -10.7533 C.ar    1  LIG1       -0.0387
      3 C          -7.7043   10.5771  -13.0419 C.ar    1  LIG1       -0.0356
      4 C          -6.9700   11.7706  -13.1413 C.ar    1  LIG1       -0.0476
      5 C          -7.8117   10.0060  -11.7679 C.ar    1  LIG1        0.0661
      6 C          -7.2142   10.6153  -10.6085 C.ar    1  LIG1        0.0237
      7 C          -7.6079    9.7475   -9.5180 C.ar    1  LIG1        0.0748
      8 N          -8.2848    8.7450   -9.9896 N.ar    1  LIG1       -0.1774
      9 N          -8.4180    8.8715  -11.3012 N.ar    1  LIG1       -0.2767
     10 C          -7.3345    9.8877   -8.0248 C.3     1  LIG1        0.0171
     11 N          -4.3847   13.7235  -11.4418 N.am    1  LIG1       -0.2975
     12 C          -5.5533   13.6485  -12.1711 C.2     1  LIG1        0.2466
     13 O          -5.9795   14.5724  -12.8566 O.2     1  LIG1       -0.2700
     14 C          -5.9627   10.4850   -7.7364 C.ar    1  LIG1       -0.0415
     15 C          -5.8552   11.7581   -7.1652 C.ar    1  LIG1       -0.0576
     16 C          -4.5966   12.3060   -6.9181 C.ar    1  LIG1       -0.0537
     17 C          -3.4424   11.5865   -7.2381 C.ar    1  LIG1       -0.0149
     18 C          -3.5593   10.3139   -7.8013 C.ar    1  LIG1       -0.0537
     19 C          -4.8122    9.7647   -8.0513 C.ar    1  LIG1       -0.0576
     20 C          -2.0942   12.1662   -6.9781 C.ar    1  LIG1        0.0195
     21 C          -1.7414   13.4274   -6.4937 C.ar    1  LIG1        0.0329
     22 N          -0.4089   13.4560   -6.4321 N.ar    1  LIG1       -0.2739
     23 N           0.1814   12.3590   -6.8068 N.ar    1  LIG1       -0.1793
     24 C          -0.8029   11.5527   -7.1728 C.ar    1  LIG1        0.0571
     25 C           0.4236   14.5699   -5.9945 C.3     1  LIG1        0.0302
     26 C          -3.7594   15.0422  -11.2114 C.3     1  LIG1        0.0150
     27 C          -2.3424   15.0924  -11.7154 C.3     1  LIG1       -0.0371
     28 C          -1.5130   13.9202  -11.2644 C.3     1  LIG1       -0.0502
     29 C          -2.1771   12.5990  -11.6641 C.3     1  LIG1       -0.0371
     30 C          -3.6239   12.4833  -11.0641 C.3     1  LIG1        0.0150
     31 H          -6.0203   12.2640   -9.8874 H       1  LIG1        0.0632
     32 H          -8.1715   10.1187  -13.9133 H       1  LIG1        0.0639
     33 H          -6.8628   12.2427  -14.1041 H       1  LIG1        0.0626
     34 H          -8.9193    8.1643  -11.8362 H       1  LIG1        0.1889
     35 H          -8.0961   10.5380   -7.5913 H       1  LIG1        0.0377
     36 H          -7.4318    8.9209   -7.5184 H       1  LIG1        0.0377
     37 H          -6.7443   12.3180   -6.9210 H       1  LIG1        0.0621
     38 H          -4.5105   13.2878   -6.4761 H       1  LIG1        0.0624
     39 H          -2.6670    9.7505   -8.0456 H       1  LIG1        0.0624
     40 H          -4.8966    8.7819   -8.4933 H       1  LIG1        0.0621
     41 H          -2.3275   14.2803   -6.2000 H       1  LIG1        0.0832
     42 H          -0.6107   10.5549   -7.5458 H       1  LIG1        0.0854
     43 H          -0.1867   15.4238   -5.7057 H       1  LIG1        0.0473
     44 H           1.0912   14.8675   -6.8032 H       1  LIG1        0.0473
     45 H           1.0319   14.2596   -5.1462 H       1  LIG1        0.0473
     46 H          -3.6902   15.1046  -10.1315 H       1  LIG1        0.0464
     47 H          -4.3521   15.8883  -11.5628 H       1  LIG1        0.0464
     48 H          -2.4316   15.1240  -12.7851 H       1  LIG1        0.0280
     49 H          -1.8360   16.0057  -11.4240 H       1  LIG1        0.0280
     50 H          -1.2586   13.9646  -10.2112 H       1  LIG1        0.0266
     51 H          -0.5771   14.0998  -11.7264 H       1  LIG1        0.0266
     52 H          -2.1550   12.4998  -12.7567 H       1  LIG1        0.0280
     53 H          -1.5317   11.7847  -11.3278 H       1  LIG1        0.0280
     54 H          -3.5224   12.4160   -9.9808 H       1  LIG1        0.0464
     55 H          -4.0278   11.5608  -11.5111 H       1  LIG1        0.0464
@<TRIPOS>BOND
     1     1     2   ar
     2     1     4   ar
     3     1    12    1
     4     2     6   ar
     5     2    31    1
     6     3     4   ar
     7     3     5   ar
     8     3    32    1
     9     4    33    1
    10     5     6   ar
    11     5     9   ar
    12     6     7   ar
    13     7     8   ar
    14     7    10    1
    15     8     9   ar
    16     9    34    1
    17    10    14    1
    18    10    35    1
    19    10    36    1
    20    11    12   am
    21    11    26    1
    22    11    30    1
    23    12    13    2
    24    14    15   ar
    25    14    19   ar
    26    15    16   ar
    27    15    37    1
    28    16    17   ar
    29    16    38    1
    30    17    18   ar
    31    17    20    1
    32    18    19   ar
    33    18    39    1
    34    19    40    1
    35    20    21   ar
    36    20    24   ar
    37    21    22   ar
    38    21    41    1
    39    22    23   ar
    40    22    25    1
    41    23    24   ar
    42    24    42    1
    43    25    43    1
    44    25    44    1
    45    25    45    1
    46    26    27    1
    47    26    46    1
    48    26    47    1
    49    27    28    1
    50    27    48    1
    51    27    49    1
    52    28    29    1
    53    28    50    1
    54    28    51    1
    55    29    30    1
    56    29    52    1
    57    29    53    1
    58    30    54    1
    59    30    55    1
