41
 OpenBabel02152110423D
Structure written by MMmdl.
 55 59  0  0  1  0  0  0  0  0999 V2000
   -6.3365   12.3514  -12.0169 C   0  0  0  0  0  0  0  0  0  0  0  0
   -6.4737   11.7818  -10.7533 C   0  0  0  0  0  0  0  0  0  0  0  0
   -7.7043   10.5771  -13.0419 C   0  0  0  0  0  0  0  0  0  0  0  0
   -6.9700   11.7706  -13.1413 C   0  0  0  0  0  0  0  0  0  0  0  0
   -7.8117   10.0060  -11.7679 C   0  0  0  0  0  0  0  0  0  0  0  0
   -7.2142   10.6153  -10.6085 C   0  0  0  0  0  0  0  0  0  0  0  0
   -7.6079    9.7475   -9.5180 C   0  0  0  0  0  0  0  0  0  0  0  0
   -8.2848    8.7450   -9.9896 N   0  0  0  0  0  0  0  0  0  0  0  0
   -8.4180    8.8715  -11.3012 N   0  0  0  0  0  0  0  0  0  0  0  0
   -7.3345    9.8877   -8.0248 C   0  0  0  0  0  0  0  0  0  0  0  0
   -4.3847   13.7235  -11.4418 N   0  0  0  0  0  0  0  0  0  0  0  0
   -5.5533   13.6485  -12.1711 C   0  0  0  0  0  0  0  0  0  0  0  0
   -5.9795   14.5724  -12.8566 O   0  0  0  0  0  0  0  0  0  0  0  0
   -5.9627   10.4850   -7.7364 C   0  0  0  0  0  0  0  0  0  0  0  0
   -5.8552   11.7581   -7.1652 C   0  0  0  0  0  0  0  0  0  0  0  0
   -4.5966   12.3060   -6.9181 C   0  0  0  0  0  0  0  0  0  0  0  0
   -3.4424   11.5865   -7.2381 C   0  0  0  0  0  0  0  0  0  0  0  0
   -3.5593   10.3139   -7.8013 C   0  0  0  0  0  0  0  0  0  0  0  0
   -4.8122    9.7647   -8.0513 C   0  0  0  0  0  0  0  0  0  0  0  0
   -2.0942   12.1662   -6.9781 C   0  0  0  0  0  0  0  0  0  0  0  0
   -1.7414   13.4274   -6.4937 C   0  0  0  0  0  0  0  0  0  0  0  0
   -0.4089   13.4560   -6.4321 N   0  0  0  0  0  0  0  0  0  0  0  0
    0.1814   12.3590   -6.8068 N   0  0  0  0  0  0  0  0  0  0  0  0
   -0.8029   11.5527   -7.1728 C   0  0  0  0  0  0  0  0  0  0  0  0
    0.4236   14.5699   -5.9945 C   0  0  0  0  0  0  0  0  0  0  0  0
   -3.7594   15.0422  -11.2114 C   0  0  0  0  0  0  0  0  0  0  0  0
   -2.3424   15.0924  -11.7154 C   0  0  0  0  0  0  0  0  0  0  0  0
   -1.5130   13.9202  -11.2644 C   0  0  0  0  0  0  0  0  0  0  0  0
   -2.1771   12.5990  -11.6641 C   0  0  0  0  0  0  0  0  0  0  0  0
   -3.6239   12.4833  -11.0641 C   0  0  0  0  0  0  0  0  0  0  0  0
   -6.0203   12.2640   -9.8874 H   0  0  0  0  0  0  0  0  0  0  0  0
   -8.1715   10.1187  -13.9133 H   0  0  0  0  0  0  0  0  0  0  0  0
   -6.8628   12.2427  -14.1041 H   0  0  0  0  0  0  0  0  0  0  0  0
   -8.9193    8.1643  -11.8362 H   0  0  0  0  0  0  0  0  0  0  0  0
   -8.0961   10.5380   -7.5913 H   0  0  0  0  0  0  0  0  0  0  0  0
   -7.4318    8.9209   -7.5184 H   0  0  0  0  0  0  0  0  0  0  0  0
   -6.7443   12.3180   -6.9210 H   0  0  0  0  0  0  0  0  0  0  0  0
   -4.5105   13.2878   -6.4761 H   0  0  0  0  0  0  0  0  0  0  0  0
   -2.6670    9.7505   -8.0456 H   0  0  0  0  0  0  0  0  0  0  0  0
   -4.8966    8.7819   -8.4933 H   0  0  0  0  0  0  0  0  0  0  0  0
   -2.3275   14.2803   -6.2000 H   0  0  0  0  0  0  0  0  0  0  0  0
   -0.6107   10.5549   -7.5458 H   0  0  0  0  0  0  0  0  0  0  0  0
   -0.1867   15.4238   -5.7057 H   0  0  0  0  0  0  0  0  0  0  0  0
    1.0912   14.8675   -6.8032 H   0  0  0  0  0  0  0  0  0  0  0  0
    1.0319   14.2596   -5.1462 H   0  0  0  0  0  0  0  0  0  0  0  0
   -3.6902   15.1046  -10.1315 H   0  0  0  0  0  0  0  0  0  0  0  0
   -4.3521   15.8883  -11.5628 H   0  0  0  0  0  0  0  0  0  0  0  0
   -2.4316   15.1240  -12.7851 H   0  0  0  0  0  0  0  0  0  0  0  0
   -1.8360   16.0057  -11.4240 H   0  0  0  0  0  0  0  0  0  0  0  0
   -1.2586   13.9646  -10.2112 H   0  0  0  0  0  0  0  0  0  0  0  0
   -0.5771   14.0998  -11.7264 H   0  0  0  0  0  0  0  0  0  0  0  0
   -2.1550   12.4998  -12.7567 H   0  0  0  0  0  0  0  0  0  0  0  0
   -1.5317   11.7847  -11.3278 H   0  0  0  0  0  0  0  0  0  0  0  0
   -3.5224   12.4160   -9.9808 H   0  0  0  0  0  0  0  0  0  0  0  0
   -4.0278   11.5608  -11.5111 H   0  0  0  0  0  0  0  0  0  0  0  0
  1  2  2  0  0  0  0
  1  4  1  0  0  0  0
  1 12  1  0  0  0  0
  2  6  1  0  0  0  0
  2 31  1  0  0  0  0
  3  4  2  0  0  0  0
  3  5  1  0  0  0  0
  3 32  1  0  0  0  0
  4 33  1  0  0  0  0
  5  6  2  0  0  0  0
  5  9  1  0  0  0  0
  6  7  1  0  0  0  0
  7  8  2  0  0  0  0
  7 10  1  0  0  0  0
  8  9  1  0  0  0  0
  9 34  1  0  0  0  0
 10 14  1  0  0  0  0
 10 35  1  0  0  0  0
 10 36  1  0  0  0  0
 11 12  1  0  0  0  0
 11 26  1  0  0  0  0
 11 30  1  0  0  0  0
 12 13  2  0  0  0  0
 14 15  2  0  0  0  0
 14 19  1  0  0  0  0
 15 16  1  0  0  0  0
 15 37  1  0  0  0  0
 16 17  2  0  0  0  0
 16 38  1  0  0  0  0
 17 18  1  0  0  0  0
 17 20  1  0  0  0  0
 18 19  2  0  0  0  0
 18 39  1  0  0  0  0
 19 40  1  0  0  0  0
 20 21  2  0  0  0  0
 20 24  1  0  0  0  0
 21 22  1  0  0  0  0
 21 41  1  0  0  0  0
 22 23  1  0  0  0  0
 22 25  1  0  0  0  0
 23 24  2  0  0  0  0
 24 42  1  0  0  0  0
 25 43  1  0  0  0  0
 25 44  1  0  0  0  0
 25 45  1  0  0  0  0
 26 27  1  0  0  0  0
 26 46  1  0  0  0  0
 26 47  1  0  0  0  0
 27 28  1  0  0  0  0
 27 48  1  0  0  0  0
 27 49  1  0  0  0  0
 28 29  1  0  0  0  0
 28 50  1  0  0  0  0
 28 51  1  0  0  0  0
 29 30  1  0  0  0  0
 29 52  1  0  0  0  0
 29 53  1  0  0  0  0
 30 54  1  0  0  0  0
 30 55  1  0  0  0  0
M  END
>  <Name>
41

>  <IC50[uM]>
0.006

$$$$
