42
 OpenBabel02152110423D
Structure written by MMmdl.
 49 53  0  0  1  0  0  0  0  0999 V2000
   -6.3691   12.3596  -12.0090 C   0  0  0  0  0  0  0  0  0  0  0  0
   -6.5082   11.8040  -10.7325 C   0  0  0  0  0  0  0  0  0  0  0  0
   -7.7289   10.5800  -13.0272 C   0  0  0  0  0  0  0  0  0  0  0  0
   -6.9931   11.7723  -13.1223 C   0  0  0  0  0  0  0  0  0  0  0  0
   -7.8208   10.0120  -11.7545 C   0  0  0  0  0  0  0  0  0  0  0  0
   -7.2366   10.6190  -10.6002 C   0  0  0  0  0  0  0  0  0  0  0  0
   -7.6071    9.7463   -9.5106 C   0  0  0  0  0  0  0  0  0  0  0  0
   -8.2820    8.7349   -9.9857 N   0  0  0  0  0  0  0  0  0  0  0  0
   -8.4162    8.8630  -11.2985 N   0  0  0  0  0  0  0  0  0  0  0  0
   -7.3216    9.8824   -8.0245 C   0  0  0  0  0  0  0  0  0  0  0  0
   -4.3612   13.7214  -11.5083 N   0  0  0  0  0  0  0  0  0  0  0  0
   -5.5493   13.6373  -12.1980 C   0  0  0  0  0  0  0  0  0  0  0  0
   -5.9470   14.5254  -12.9531 O   0  0  0  0  0  0  0  0  0  0  0  0
   -5.9509   10.4995   -7.7283 C   0  0  0  0  0  0  0  0  0  0  0  0
   -5.8798   11.7709   -7.1545 C   0  0  0  0  0  0  0  0  0  0  0  0
   -4.6121   12.3149   -6.9130 C   0  0  0  0  0  0  0  0  0  0  0  0
   -3.4406   11.5618   -7.2441 C   0  0  0  0  0  0  0  0  0  0  0  0
   -3.5052   10.2836   -7.8087 C   0  0  0  0  0  0  0  0  0  0  0  0
   -4.7939    9.7786   -8.0440 C   0  0  0  0  0  0  0  0  0  0  0  0
   -4.0930   13.5444   -6.3685 C   0  0  0  0  0  0  0  0  0  0  0  0
   -2.7888   13.5284   -6.3764 N   0  0  0  0  0  0  0  0  0  0  0  0
   -2.3823   12.3688   -6.8823 N   0  0  0  0  0  0  0  0  0  0  0  0
   -0.9528   12.1034   -6.9863 C   0  0  0  0  0  0  0  0  0  0  0  0
   -3.7146   12.5761  -10.8355 C   0  0  0  0  0  0  0  0  0  0  0  0
   -2.2074   12.9376  -10.9559 C   0  0  2  0  0  0  0  0  0  0  0  0
   -2.1889   14.4652  -10.9572 C   0  0  0  0  0  0  0  0  0  0  0  0
   -3.5166   14.9141  -11.6000 C   0  0  0  0  0  0  0  0  0  0  0  0
   -1.6730   12.4527  -12.1791 O   0  0  0  0  0  0  0  0  0  0  0  0
   -6.0709   12.2831   -9.8701 H   0  0  0  0  0  0  0  0  0  0  0  0
   -8.1905   10.1280  -13.8946 H   0  0  0  0  0  0  0  0  0  0  0  0
   -6.8760   12.2352  -14.0903 H   0  0  0  0  0  0  0  0  0  0  0  0
   -8.9104    8.1559  -11.8349 H   0  0  0  0  0  0  0  0  0  0  0  0
   -8.0978   10.5174   -7.5878 H   0  0  0  0  0  0  0  0  0  0  0  0
   -7.4227    8.9225   -7.5162 H   0  0  0  0  0  0  0  0  0  0  0  0
   -6.7759   12.3187   -6.9121 H   0  0  0  0  0  0  0  0  0  0  0  0
   -2.6149    9.7115   -8.0486 H   0  0  0  0  0  0  0  0  0  0  0  0
   -4.9008    8.7994   -8.4826 H   0  0  0  0  0  0  0  0  0  0  0  0
   -4.6404   14.3931   -5.9911 H   0  0  0  0  0  0  0  0  0  0  0  0
   -0.3733   12.9511   -6.6100 H   0  0  0  0  0  0  0  0  0  0  0  0
   -0.6843   11.9368   -8.0290 H   0  0  0  0  0  0  0  0  0  0  0  0
   -0.7041   11.2248   -6.3903 H   0  0  0  0  0  0  0  0  0  0  0  0
   -3.9481   12.5593   -9.7730 H   0  0  0  0  0  0  0  0  0  0  0  0
   -3.8897   11.6058  -11.3143 H   0  0  0  0  0  0  0  0  0  0  0  0
   -1.6065   12.4889  -10.1604 H   0  0  0  0  0  0  0  0  0  0  0  0
   -2.1357   14.8163   -9.9239 H   0  0  0  0  0  0  0  0  0  0  0  0
   -1.3181   14.8871  -11.4678 H   0  0  0  0  0  0  0  0  0  0  0  0
   -3.3218   15.2079  -12.6331 H   0  0  0  0  0  0  0  0  0  0  0  0
   -3.9608   15.7340  -11.0358 H   0  0  0  0  0  0  0  0  0  0  0  0
   -0.8094   12.8612  -12.3391 H   0  0  0  0  0  0  0  0  0  0  0  0
  1  2  2  0  0  0  0
  1  4  1  0  0  0  0
  1 12  1  0  0  0  0
  2  6  1  0  0  0  0
  2 29  1  0  0  0  0
  3  4  2  0  0  0  0
  3  5  1  0  0  0  0
  3 30  1  0  0  0  0
  4 31  1  0  0  0  0
  5  6  2  0  0  0  0
  5  9  1  0  0  0  0
  6  7  1  0  0  0  0
  7  8  2  0  0  0  0
  7 10  1  0  0  0  0
  8  9  1  0  0  0  0
  9 32  1  0  0  0  0
 10 14  1  0  0  0  0
 10 33  1  0  0  0  0
 10 34  1  0  0  0  0
 11 12  1  0  0  0  0
 11 24  1  0  0  0  0
 11 27  1  0  0  0  0
 12 13  2  0  0  0  0
 14 15  2  0  0  0  0
 14 19  1  0  0  0  0
 15 16  1  0  0  0  0
 15 35  1  0  0  0  0
 16 17  2  0  0  0  0
 16 20  1  0  0  0  0
 17 18  1  0  0  0  0
 17 22  1  0  0  0  0
 18 19  2  0  0  0  0
 18 36  1  0  0  0  0
 19 37  1  0  0  0  0
 20 21  2  0  0  0  0
 20 38  1  0  0  0  0
 21 22  1  0  0  0  0
 22 23  1  0  0  0  0
 23 39  1  0  0  0  0
 23 40  1  0  0  0  0
 23 41  1  0  0  0  0
 24 25  1  0  0  0  0
 24 42  1  0  0  0  0
 24 43  1  0  0  0  0
 25 26  1  0  0  0  0
 25 28  1  0  0  0  0
 25 44  1  1  0  0  0
 26 27  1  0  0  0  0
 26 45  1  0  0  0  0
 26 46  1  0  0  0  0
 27 47  1  0  0  0  0
 27 48  1  0  0  0  0
 28 49  1  0  0  0  0
M  END
>  <Name>
42

>  <IC50[uM]>
0.004

$$$$
