43
 OpenBabel02152110423D
Structure written by MMmdl.
 48 52  0  0  1  0  0  0  0  0999 V2000
   -6.3694   12.3608  -12.0100 C   0  0  0  0  0  0  0  0  0  0  0  0
   -6.5170   11.8053  -10.7333 C   0  0  0  0  0  0  0  0  0  0  0  0
   -7.7298   10.5799  -13.0278 C   0  0  0  0  0  0  0  0  0  0  0  0
   -6.9915   11.7687  -13.1228 C   0  0  0  0  0  0  0  0  0  0  0  0
   -7.8213   10.0100  -11.7550 C   0  0  0  0  0  0  0  0  0  0  0  0
   -7.2397   10.6196  -10.6003 C   0  0  0  0  0  0  0  0  0  0  0  0
   -7.6092    9.7471   -9.5124 C   0  0  0  0  0  0  0  0  0  0  0  0
   -8.2773    8.7308   -9.9855 N   0  0  0  0  0  0  0  0  0  0  0  0
   -8.4143    8.8607  -11.2979 N   0  0  0  0  0  0  0  0  0  0  0  0
   -7.3268    9.8907   -8.0257 C   0  0  0  0  0  0  0  0  0  0  0  0
   -4.3565   13.7183  -11.5055 N   0  0  0  0  0  0  0  0  0  0  0  0
   -5.5483   13.6363  -12.1897 C   0  0  0  0  0  0  0  0  0  0  0  0
   -5.9477   14.5322  -12.9368 O   0  0  0  0  0  0  0  0  0  0  0  0
   -5.9513   10.4999   -7.7281 C   0  0  0  0  0  0  0  0  0  0  0  0
   -5.8738   11.7695   -7.1531 C   0  0  0  0  0  0  0  0  0  0  0  0
   -4.6094   12.3134   -6.9136 C   0  0  0  0  0  0  0  0  0  0  0  0
   -3.4376   11.5622   -7.2444 C   0  0  0  0  0  0  0  0  0  0  0  0
   -3.5099   10.2841   -7.8101 C   0  0  0  0  0  0  0  0  0  0  0  0
   -4.7961    9.7769   -8.0457 C   0  0  0  0  0  0  0  0  0  0  0  0
   -4.0914   13.5427   -6.3707 C   0  0  0  0  0  0  0  0  0  0  0  0
   -2.7880   13.5314   -6.3772 N   0  0  0  0  0  0  0  0  0  0  0  0
   -2.3819   12.3721   -6.8788 N   0  0  0  0  0  0  0  0  0  0  0  0
   -0.9505   12.1058   -6.9728 C   0  0  0  0  0  0  0  0  0  0  0  0
   -3.7111   12.5665  -10.8449 C   0  0  0  0  0  0  0  0  0  0  0  0
   -2.2188   12.9372  -10.9792 C   0  0  0  0  0  0  0  0  0  0  0  0
   -2.1852   14.4611  -10.9536 C   0  0  0  0  0  0  0  0  0  0  0  0
   -3.5089   14.9092  -11.5986 C   0  0  0  0  0  0  0  0  0  0  0  0
   -1.7019   12.4742  -12.1199 F   0  0  0  0  0  0  0  0  0  0  0  0
   -1.4726   12.4435   -9.9943 F   0  0  0  0  0  0  0  0  0  0  0  0
   -6.0887   12.2893   -9.8700 H   0  0  0  0  0  0  0  0  0  0  0  0
   -8.1938   10.1290  -13.8927 H   0  0  0  0  0  0  0  0  0  0  0  0
   -6.8742   12.2301  -14.0952 H   0  0  0  0  0  0  0  0  0  0  0  0
   -8.9091    8.1541  -11.8345 H   0  0  0  0  0  0  0  0  0  0  0  0
   -8.0898   10.5513   -7.6049 H   0  0  0  0  0  0  0  0  0  0  0  0
   -7.4625    8.9415   -7.5064 H   0  0  0  0  0  0  0  0  0  0  0  0
   -6.7657   12.3184   -6.9082 H   0  0  0  0  0  0  0  0  0  0  0  0
   -2.6226    9.7123   -8.0525 H   0  0  0  0  0  0  0  0  0  0  0  0
   -4.9028    8.7968   -8.4854 H   0  0  0  0  0  0  0  0  0  0  0  0
   -4.6421   14.3891   -5.9955 H   0  0  0  0  0  0  0  0  0  0  0  0
   -0.3702   12.9568   -6.6055 H   0  0  0  0  0  0  0  0  0  0  0  0
   -0.6665   11.9284   -8.0015 H   0  0  0  0  0  0  0  0  0  0  0  0
   -0.7037   11.2249   -6.3851 H   0  0  0  0  0  0  0  0  0  0  0  0
   -3.9410   12.5478   -9.7815 H   0  0  0  0  0  0  0  0  0  0  0  0
   -3.8926   11.6034  -11.3224 H   0  0  0  0  0  0  0  0  0  0  0  0
   -2.1199   14.8153   -9.9199 H   0  0  0  0  0  0  0  0  0  0  0  0
   -1.3204   14.8723  -11.4772 H   0  0  0  0  0  0  0  0  0  0  0  0
   -3.3224   15.2093  -12.6316 H   0  0  0  0  0  0  0  0  0  0  0  0
   -3.9605   15.7276  -11.0393 H   0  0  0  0  0  0  0  0  0  0  0  0
  1  2  2  0  0  0  0
  1  4  1  0  0  0  0
  1 12  1  0  0  0  0
  2  6  1  0  0  0  0
  2 30  1  0  0  0  0
  3  4  2  0  0  0  0
  3  5  1  0  0  0  0
  3 31  1  0  0  0  0
  4 32  1  0  0  0  0
  5  6  2  0  0  0  0
  5  9  1  0  0  0  0
  6  7  1  0  0  0  0
  7  8  2  0  0  0  0
  7 10  1  0  0  0  0
  8  9  1  0  0  0  0
  9 33  1  0  0  0  0
 10 14  1  0  0  0  0
 10 34  1  0  0  0  0
 10 35  1  0  0  0  0
 11 12  1  0  0  0  0
 11 24  1  0  0  0  0
 11 27  1  0  0  0  0
 12 13  2  0  0  0  0
 14 15  2  0  0  0  0
 14 19  1  0  0  0  0
 15 16  1  0  0  0  0
 15 36  1  0  0  0  0
 16 17  2  0  0  0  0
 16 20  1  0  0  0  0
 17 18  1  0  0  0  0
 17 22  1  0  0  0  0
 18 19  2  0  0  0  0
 18 37  1  0  0  0  0
 19 38  1  0  0  0  0
 20 21  2  0  0  0  0
 20 39  1  0  0  0  0
 21 22  1  0  0  0  0
 22 23  1  0  0  0  0
 23 40  1  0  0  0  0
 23 41  1  0  0  0  0
 23 42  1  0  0  0  0
 24 25  1  0  0  0  0
 24 43  1  0  0  0  0
 24 44  1  0  0  0  0
 25 26  1  0  0  0  0
 25 28  1  0  0  0  0
 25 29  1  0  0  0  0
 26 27  1  0  0  0  0
 26 45  1  0  0  0  0
 26 46  1  0  0  0  0
 27 47  1  0  0  0  0
 27 48  1  0  0  0  0
M  END
>  <Name>
43

>  <IC50[uM]>
0.002

$$$$
