@<TRIPOS>MOLECULE
44
 46 50 0 0 0
SMALL
GASTEIGER
****
Structure written by MMmdl.
@<TRIPOS>ATOM
      1 C          -6.3932   12.3500  -12.0125 C.ar    1  LIG1        0.0376
      2 C          -6.5644   11.7828  -10.7394 C.ar    1  LIG1       -0.0387
      3 C          -7.7358   10.5711  -13.0331 C.ar    1  LIG1       -0.0356
      4 C          -6.9954   11.7572  -13.1322 C.ar    1  LIG1       -0.0476
      5 C          -7.8242    9.9989  -11.7591 C.ar    1  LIG1        0.0661
      6 C          -7.2585   10.6059  -10.6150 C.ar    1  LIG1        0.0237
      7 C          -7.6168    9.7386   -9.5213 C.ar    1  LIG1        0.0748
      8 N          -8.2709    8.7166   -9.9884 N.ar    1  LIG1       -0.1774
      9 N          -8.4108    8.8490  -11.3012 N.ar    1  LIG1       -0.2767
     10 C          -7.3306    9.8912   -8.0312 C.3     1  LIG1        0.0172
     11 N          -4.5413   13.8555  -11.3648 N.am    1  LIG1       -0.2925
     12 C          -5.5934   13.6525  -12.1835 C.2     1  LIG1        0.2468
     13 O          -5.9232   14.4812  -13.0224 O.2     1  LIG1       -0.2700
     14 C          -5.9508   10.4991   -7.7310 C.ar    1  LIG1       -0.0408
     15 C          -5.8673   11.7672   -7.1520 C.ar    1  LIG1       -0.0475
     16 C          -4.6035   12.3102   -6.9134 C.ar    1  LIG1        0.0200
     17 C          -3.4392   11.5630   -7.2455 C.ar    1  LIG1        0.0686
     18 C          -3.5146   10.2834   -7.8141 C.ar    1  LIG1       -0.0358
     19 C          -4.7998    9.7761   -8.0492 C.ar    1  LIG1       -0.0562
     20 C          -4.0885   13.5395   -6.3720 C.ar    1  LIG1        0.0571
     21 N          -2.7847   13.5343   -6.3770 N.ar    1  LIG1       -0.1788
     22 N          -2.3791   12.3751   -6.8806 N.ar    1  LIG1       -0.2668
     23 C          -0.9494   12.1118   -6.9818 C.3     1  LIG1        0.0309
     24 C          -3.7091   15.0460  -11.2252 C.3     1  LIG1        0.0426
     25 C          -3.1570   14.3608   -9.9755 C.3     1  LIG1        0.0866
     26 C          -4.1684   13.2423  -10.1016 C.3     1  LIG1        0.0426
     27 O          -1.8246   13.9322  -10.0585 O.3     1  LIG1       -0.3887
     28 H          -6.2039   12.2411   -9.8798 H       1  LIG1        0.0632
     29 H          -8.2037   10.1279  -13.8914 H       1  LIG1        0.0639
     30 H          -6.8803   12.2184  -14.1069 H       1  LIG1        0.0626
     31 H          -8.9014    8.1446  -11.8359 H       1  LIG1        0.1889
     32 H          -8.1132   10.5144   -7.5862 H       1  LIG1        0.0377
     33 H          -7.4298    8.9292   -7.5318 H       1  LIG1        0.0377
     34 H          -6.7510   12.3165   -6.9042 H       1  LIG1        0.0627
     35 H          -2.6383    9.7136   -8.0589 H       1  LIG1        0.0639
     36 H          -4.9045    8.7930   -8.4905 H       1  LIG1        0.0621
     37 H          -4.6440   14.3809   -6.0010 H       1  LIG1        0.0854
     38 H          -0.3673   12.9607   -6.6056 H       1  LIG1        0.0473
     39 H          -0.6856   11.9435   -8.0238 H       1  LIG1        0.0473
     40 H          -0.7046   11.2327   -6.3874 H       1  LIG1        0.0473
     41 H          -2.9665   15.3166  -11.9738 H       1  LIG1        0.0490
     42 H          -4.4384   15.8239  -11.0314 H       1  LIG1        0.0490
     43 H          -3.2969   14.9531   -9.0651 H       1  LIG1        0.0625
     44 H          -5.0216   13.4609   -9.4801 H       1  LIG1        0.0490
     45 H          -3.7904   12.2246  -10.0500 H       1  LIG1        0.0490
     46 H          -1.7501   13.4251  -10.8742 H       1  LIG1        0.2099
@<TRIPOS>BOND
     1     1     2   ar
     2     1     4   ar
     3     1    12    1
     4     2     6   ar
     5     2    28    1
     6     3     4   ar
     7     3     5   ar
     8     3    29    1
     9     4    30    1
    10     5     6   ar
    11     5     9   ar
    12     6     7   ar
    13     7     8   ar
    14     7    10    1
    15     8     9   ar
    16     9    31    1
    17    10    14    1
    18    10    32    1
    19    10    33    1
    20    11    12   am
    21    11    24    1
    22    11    26    1
    23    12    13    2
    24    14    15   ar
    25    14    19   ar
    26    15    16   ar
    27    15    34    1
    28    16    17   ar
    29    16    20   ar
    30    17    18   ar
    31    17    22   ar
    32    18    19   ar
    33    18    35    1
    34    19    36    1
    35    20    21   ar
    36    20    37    1
    37    21    22   ar
    38    22    23    1
    39    23    38    1
    40    23    39    1
    41    23    40    1
    42    24    25    1
    43    24    41    1
    44    24    42    1
    45    25    26    1
    46    25    27    1
    47    25    43    1
    48    26    44    1
    49    26    45    1
    50    27    46    1
