44
 OpenBabel02152110423D
Structure written by MMmdl.
 46 50  0  0  1  0  0  0  0  0999 V2000
   -6.3932   12.3500  -12.0125 C   0  0  0  0  0  0  0  0  0  0  0  0
   -6.5644   11.7828  -10.7394 C   0  0  0  0  0  0  0  0  0  0  0  0
   -7.7358   10.5711  -13.0331 C   0  0  0  0  0  0  0  0  0  0  0  0
   -6.9954   11.7572  -13.1322 C   0  0  0  0  0  0  0  0  0  0  0  0
   -7.8242    9.9989  -11.7591 C   0  0  0  0  0  0  0  0  0  0  0  0
   -7.2585   10.6059  -10.6150 C   0  0  0  0  0  0  0  0  0  0  0  0
   -7.6168    9.7386   -9.5213 C   0  0  0  0  0  0  0  0  0  0  0  0
   -8.2709    8.7166   -9.9884 N   0  0  0  0  0  0  0  0  0  0  0  0
   -8.4108    8.8490  -11.3012 N   0  0  0  0  0  0  0  0  0  0  0  0
   -7.3306    9.8912   -8.0312 C   0  0  0  0  0  0  0  0  0  0  0  0
   -4.5413   13.8555  -11.3648 N   0  0  0  0  0  0  0  0  0  0  0  0
   -5.5934   13.6525  -12.1835 C   0  0  0  0  0  0  0  0  0  0  0  0
   -5.9232   14.4812  -13.0224 O   0  0  0  0  0  0  0  0  0  0  0  0
   -5.9508   10.4991   -7.7310 C   0  0  0  0  0  0  0  0  0  0  0  0
   -5.8673   11.7672   -7.1520 C   0  0  0  0  0  0  0  0  0  0  0  0
   -4.6035   12.3102   -6.9134 C   0  0  0  0  0  0  0  0  0  0  0  0
   -3.4392   11.5630   -7.2455 C   0  0  0  0  0  0  0  0  0  0  0  0
   -3.5146   10.2834   -7.8141 C   0  0  0  0  0  0  0  0  0  0  0  0
   -4.7998    9.7761   -8.0492 C   0  0  0  0  0  0  0  0  0  0  0  0
   -4.0885   13.5395   -6.3720 C   0  0  0  0  0  0  0  0  0  0  0  0
   -2.7847   13.5343   -6.3770 N   0  0  0  0  0  0  0  0  0  0  0  0
   -2.3791   12.3751   -6.8806 N   0  0  0  0  0  0  0  0  0  0  0  0
   -0.9494   12.1118   -6.9818 C   0  0  0  0  0  0  0  0  0  0  0  0
   -3.7091   15.0460  -11.2252 C   0  0  0  0  0  0  0  0  0  0  0  0
   -3.1570   14.3608   -9.9755 C   0  0  0  0  0  0  0  0  0  0  0  0
   -4.1684   13.2423  -10.1016 C   0  0  0  0  0  0  0  0  0  0  0  0
   -1.8246   13.9322  -10.0585 O   0  0  0  0  0  0  0  0  0  0  0  0
   -6.2039   12.2411   -9.8798 H   0  0  0  0  0  0  0  0  0  0  0  0
   -8.2037   10.1279  -13.8914 H   0  0  0  0  0  0  0  0  0  0  0  0
   -6.8803   12.2184  -14.1069 H   0  0  0  0  0  0  0  0  0  0  0  0
   -8.9014    8.1446  -11.8359 H   0  0  0  0  0  0  0  0  0  0  0  0
   -8.1132   10.5144   -7.5862 H   0  0  0  0  0  0  0  0  0  0  0  0
   -7.4298    8.9292   -7.5318 H   0  0  0  0  0  0  0  0  0  0  0  0
   -6.7510   12.3165   -6.9042 H   0  0  0  0  0  0  0  0  0  0  0  0
   -2.6383    9.7136   -8.0589 H   0  0  0  0  0  0  0  0  0  0  0  0
   -4.9045    8.7930   -8.4905 H   0  0  0  0  0  0  0  0  0  0  0  0
   -4.6440   14.3809   -6.0010 H   0  0  0  0  0  0  0  0  0  0  0  0
   -0.3673   12.9607   -6.6056 H   0  0  0  0  0  0  0  0  0  0  0  0
   -0.6856   11.9435   -8.0238 H   0  0  0  0  0  0  0  0  0  0  0  0
   -0.7046   11.2327   -6.3874 H   0  0  0  0  0  0  0  0  0  0  0  0
   -2.9665   15.3166  -11.9738 H   0  0  0  0  0  0  0  0  0  0  0  0
   -4.4384   15.8239  -11.0314 H   0  0  0  0  0  0  0  0  0  0  0  0
   -3.2969   14.9531   -9.0651 H   0  0  0  0  0  0  0  0  0  0  0  0
   -5.0216   13.4609   -9.4801 H   0  0  0  0  0  0  0  0  0  0  0  0
   -3.7904   12.2246  -10.0500 H   0  0  0  0  0  0  0  0  0  0  0  0
   -1.7501   13.4251  -10.8742 H   0  0  0  0  0  0  0  0  0  0  0  0
  1  2  2  0  0  0  0
  1  4  1  0  0  0  0
  1 12  1  0  0  0  0
  2  6  1  0  0  0  0
  2 28  1  0  0  0  0
  3  4  2  0  0  0  0
  3  5  1  0  0  0  0
  3 29  1  0  0  0  0
  4 30  1  0  0  0  0
  5  6  2  0  0  0  0
  5  9  1  0  0  0  0
  6  7  1  0  0  0  0
  7  8  2  0  0  0  0
  7 10  1  0  0  0  0
  8  9  1  0  0  0  0
  9 31  1  0  0  0  0
 10 14  1  0  0  0  0
 10 32  1  0  0  0  0
 10 33  1  0  0  0  0
 11 12  1  0  0  0  0
 11 24  1  0  0  0  0
 11 26  1  0  0  0  0
 12 13  2  0  0  0  0
 14 15  2  0  0  0  0
 14 19  1  0  0  0  0
 15 16  1  0  0  0  0
 15 34  1  0  0  0  0
 16 17  2  0  0  0  0
 16 20  1  0  0  0  0
 17 18  1  0  0  0  0
 17 22  1  0  0  0  0
 18 19  2  0  0  0  0
 18 35  1  0  0  0  0
 19 36  1  0  0  0  0
 20 21  2  0  0  0  0
 20 37  1  0  0  0  0
 21 22  1  0  0  0  0
 22 23  1  0  0  0  0
 23 38  1  0  0  0  0
 23 39  1  0  0  0  0
 23 40  1  0  0  0  0
 24 25  1  0  0  0  0
 24 41  1  0  0  0  0
 24 42  1  0  0  0  0
 25 26  1  0  0  0  0
 25 27  1  0  0  0  0
 25 43  1  0  0  0  0
 26 44  1  0  0  0  0
 26 45  1  0  0  0  0
 27 46  1  0  0  0  0
M  END
>  <Name>
44

>  <IC50[uM]>
0.004

$$$$
