@<TRIPOS>MOLECULE
45
 49 53 0 0 0
SMALL
GASTEIGER
****
Structure written by MMmdl.
@<TRIPOS>ATOM
      1 C          -6.4275   12.3453  -12.0176 C.ar    1  LIG1        0.0376
      2 C          -6.6105   11.7832  -10.7429 C.ar    1  LIG1       -0.0387
      3 C          -7.7405   10.5587  -13.0479 C.ar    1  LIG1       -0.0356
      4 C          -7.0073   11.7527  -13.1387 C.ar    1  LIG1       -0.0476
      5 C          -7.8357    9.9872  -11.7695 C.ar    1  LIG1        0.0661
      6 C          -7.2848   10.5993  -10.6252 C.ar    1  LIG1        0.0237
      7 C          -7.6281    9.7307   -9.5318 C.ar    1  LIG1        0.0748
      8 N          -8.2830    8.7083   -9.9969 N.ar    1  LIG1       -0.1774
      9 N          -8.4214    8.8369  -11.3125 N.ar    1  LIG1       -0.2767
     10 C          -7.3299    9.8861   -8.0415 C.3     1  LIG1        0.0172
     11 N          -4.6020   13.8371  -11.3112 N.am    1  LIG1       -0.2925
     12 C          -5.6232   13.6419  -12.1798 C.2     1  LIG1        0.2468
     13 O          -5.9069   14.4516  -13.0592 O.2     1  LIG1       -0.2700
     14 C          -5.9473   10.4903   -7.7303 C.ar    1  LIG1       -0.0408
     15 C          -5.8632   11.7421   -7.1195 C.ar    1  LIG1       -0.0475
     16 C          -4.5901   12.2560   -6.8332 C.ar    1  LIG1        0.0200
     17 C          -3.4296   11.5300   -7.2115 C.ar    1  LIG1        0.0686
     18 C          -3.5045   10.2730   -7.8164 C.ar    1  LIG1       -0.0358
     19 C          -4.7945    9.7703   -8.0537 C.ar    1  LIG1       -0.0562
     20 C          -4.0643   13.4351   -6.1976 C.ar    1  LIG1        0.0571
     21 N          -2.7662   13.4536   -6.2615 N.ar    1  LIG1       -0.1788
     22 N          -2.3669   12.3336   -6.8391 N.ar    1  LIG1       -0.2668
     23 C          -0.9435   12.0941   -6.9881 C.3     1  LIG1        0.0309
     24 C          -4.0340   12.9997  -10.2404 C.3     1  LIG1        0.0428
     25 C          -3.1550   14.1929   -9.9451 C.3     1  LIG1        0.0897
     26 C          -3.8070   15.0441  -11.0419 C.3     1  LIG1        0.0428
     27 O          -3.4251   14.7437   -8.6708 O.3     1  LIG1       -0.3767
     28 C          -4.8009   14.9943   -8.3397 C.3     1  LIG1        0.0369
     29 H          -6.2751   12.2510   -9.8808 H       1  LIG1        0.0632
     30 H          -8.1947   10.1119  -13.9118 H       1  LIG1        0.0639
     31 H          -6.8796   12.2190  -14.1080 H       1  LIG1        0.0626
     32 H          -8.9146    8.1352  -11.8444 H       1  LIG1        0.1889
     33 H          -8.1022   10.5167   -7.5911 H       1  LIG1        0.0377
     34 H          -7.4243    8.9304   -7.5266 H       1  LIG1        0.0377
     35 H          -6.7518   12.2958   -6.8714 H       1  LIG1        0.0627
     36 H          -2.6233    9.7099   -8.0738 H       1  LIG1        0.0639
     37 H          -4.9015    8.7955   -8.5026 H       1  LIG1        0.0621
     38 H          -4.6122   14.2555   -5.7697 H       1  LIG1        0.0854
     39 H          -0.3704   12.9492   -6.6128 H       1  LIG1        0.0473
     40 H          -0.6882   11.9370   -8.0353 H       1  LIG1        0.0473
     41 H          -0.6930   11.2211   -6.3917 H       1  LIG1        0.0473
     42 H          -4.7681   12.9512   -9.5114 H       1  LIG1        0.0491
     43 H          -3.5878   12.0194  -10.4228 H       1  LIG1        0.0491
     44 H          -2.0910   13.9881  -10.0141 H       1  LIG1        0.0627
     45 H          -3.1162   15.4759  -11.7546 H       1  LIG1        0.0491
     46 H          -4.5864   15.7240  -10.7221 H       1  LIG1        0.0491
     47 H          -4.7653   15.4448   -7.3800 H       1  LIG1        0.0524
     48 H          -5.4372   14.1236   -8.2286 H       1  LIG1        0.0524
     49 H          -5.3333   15.6922   -8.9422 H       1  LIG1        0.0524
@<TRIPOS>BOND
     1     1     2   ar
     2     1     4   ar
     3     1    12    1
     4     2     6   ar
     5     2    29    1
     6     3     4   ar
     7     3     5   ar
     8     3    30    1
     9     4    31    1
    10     5     6   ar
    11     5     9   ar
    12     6     7   ar
    13     7     8   ar
    14     7    10    1
    15     8     9   ar
    16     9    32    1
    17    10    14    1
    18    10    33    1
    19    10    34    1
    20    11    12   am
    21    11    24    1
    22    11    26    1
    23    12    13    2
    24    14    15   ar
    25    14    19   ar
    26    15    16   ar
    27    15    35    1
    28    16    17   ar
    29    16    20   ar
    30    17    18   ar
    31    17    22   ar
    32    18    19   ar
    33    18    36    1
    34    19    37    1
    35    20    21   ar
    36    20    38    1
    37    21    22   ar
    38    22    23    1
    39    23    39    1
    40    23    40    1
    41    23    41    1
    42    24    25    1
    43    24    42    1
    44    24    43    1
    45    25    26    1
    46    25    27    1
    47    25    44    1
    48    26    45    1
    49    26    46    1
    50    27    28    1
    51    28    47    1
    52    28    48    1
    53    28    49    1
