45
 OpenBabel02152110423D
Structure written by MMmdl.
 49 53  0  0  1  0  0  0  0  0999 V2000
   -6.4275   12.3453  -12.0176 C   0  0  0  0  0  0  0  0  0  0  0  0
   -6.6105   11.7832  -10.7429 C   0  0  0  0  0  0  0  0  0  0  0  0
   -7.7405   10.5587  -13.0479 C   0  0  0  0  0  0  0  0  0  0  0  0
   -7.0073   11.7527  -13.1387 C   0  0  0  0  0  0  0  0  0  0  0  0
   -7.8357    9.9872  -11.7695 C   0  0  0  0  0  0  0  0  0  0  0  0
   -7.2848   10.5993  -10.6252 C   0  0  0  0  0  0  0  0  0  0  0  0
   -7.6281    9.7307   -9.5318 C   0  0  0  0  0  0  0  0  0  0  0  0
   -8.2830    8.7083   -9.9969 N   0  0  0  0  0  0  0  0  0  0  0  0
   -8.4214    8.8369  -11.3125 N   0  0  0  0  0  0  0  0  0  0  0  0
   -7.3299    9.8861   -8.0415 C   0  0  0  0  0  0  0  0  0  0  0  0
   -4.6020   13.8371  -11.3112 N   0  0  0  0  0  0  0  0  0  0  0  0
   -5.6232   13.6419  -12.1798 C   0  0  0  0  0  0  0  0  0  0  0  0
   -5.9069   14.4516  -13.0592 O   0  0  0  0  0  0  0  0  0  0  0  0
   -5.9473   10.4903   -7.7303 C   0  0  0  0  0  0  0  0  0  0  0  0
   -5.8632   11.7421   -7.1195 C   0  0  0  0  0  0  0  0  0  0  0  0
   -4.5901   12.2560   -6.8332 C   0  0  0  0  0  0  0  0  0  0  0  0
   -3.4296   11.5300   -7.2115 C   0  0  0  0  0  0  0  0  0  0  0  0
   -3.5045   10.2730   -7.8164 C   0  0  0  0  0  0  0  0  0  0  0  0
   -4.7945    9.7703   -8.0537 C   0  0  0  0  0  0  0  0  0  0  0  0
   -4.0643   13.4351   -6.1976 C   0  0  0  0  0  0  0  0  0  0  0  0
   -2.7662   13.4536   -6.2615 N   0  0  0  0  0  0  0  0  0  0  0  0
   -2.3669   12.3336   -6.8391 N   0  0  0  0  0  0  0  0  0  0  0  0
   -0.9435   12.0941   -6.9881 C   0  0  0  0  0  0  0  0  0  0  0  0
   -4.0340   12.9997  -10.2404 C   0  0  0  0  0  0  0  0  0  0  0  0
   -3.1550   14.1929   -9.9451 C   0  0  0  0  0  0  0  0  0  0  0  0
   -3.8070   15.0441  -11.0419 C   0  0  0  0  0  0  0  0  0  0  0  0
   -3.4251   14.7437   -8.6708 O   0  0  0  0  0  0  0  0  0  0  0  0
   -4.8009   14.9943   -8.3397 C   0  0  0  0  0  0  0  0  0  0  0  0
   -6.2751   12.2510   -9.8808 H   0  0  0  0  0  0  0  0  0  0  0  0
   -8.1947   10.1119  -13.9118 H   0  0  0  0  0  0  0  0  0  0  0  0
   -6.8796   12.2190  -14.1080 H   0  0  0  0  0  0  0  0  0  0  0  0
   -8.9146    8.1352  -11.8444 H   0  0  0  0  0  0  0  0  0  0  0  0
   -8.1022   10.5167   -7.5911 H   0  0  0  0  0  0  0  0  0  0  0  0
   -7.4243    8.9304   -7.5266 H   0  0  0  0  0  0  0  0  0  0  0  0
   -6.7518   12.2958   -6.8714 H   0  0  0  0  0  0  0  0  0  0  0  0
   -2.6233    9.7099   -8.0738 H   0  0  0  0  0  0  0  0  0  0  0  0
   -4.9015    8.7955   -8.5026 H   0  0  0  0  0  0  0  0  0  0  0  0
   -4.6122   14.2555   -5.7697 H   0  0  0  0  0  0  0  0  0  0  0  0
   -0.3704   12.9492   -6.6128 H   0  0  0  0  0  0  0  0  0  0  0  0
   -0.6882   11.9370   -8.0353 H   0  0  0  0  0  0  0  0  0  0  0  0
   -0.6930   11.2211   -6.3917 H   0  0  0  0  0  0  0  0  0  0  0  0
   -4.7681   12.9512   -9.5114 H   0  0  0  0  0  0  0  0  0  0  0  0
   -3.5878   12.0194  -10.4228 H   0  0  0  0  0  0  0  0  0  0  0  0
   -2.0910   13.9881  -10.0141 H   0  0  0  0  0  0  0  0  0  0  0  0
   -3.1162   15.4759  -11.7546 H   0  0  0  0  0  0  0  0  0  0  0  0
   -4.5864   15.7240  -10.7221 H   0  0  0  0  0  0  0  0  0  0  0  0
   -4.7653   15.4448   -7.3800 H   0  0  0  0  0  0  0  0  0  0  0  0
   -5.4372   14.1236   -8.2286 H   0  0  0  0  0  0  0  0  0  0  0  0
   -5.3333   15.6922   -8.9422 H   0  0  0  0  0  0  0  0  0  0  0  0
  1  2  2  0  0  0  0
  1  4  1  0  0  0  0
  1 12  1  0  0  0  0
  2  6  1  0  0  0  0
  2 29  1  0  0  0  0
  3  4  2  0  0  0  0
  3  5  1  0  0  0  0
  3 30  1  0  0  0  0
  4 31  1  0  0  0  0
  5  6  2  0  0  0  0
  5  9  1  0  0  0  0
  6  7  1  0  0  0  0
  7  8  2  0  0  0  0
  7 10  1  0  0  0  0
  8  9  1  0  0  0  0
  9 32  1  0  0  0  0
 10 14  1  0  0  0  0
 10 33  1  0  0  0  0
 10 34  1  0  0  0  0
 11 12  1  0  0  0  0
 11 24  1  0  0  0  0
 11 26  1  0  0  0  0
 12 13  2  0  0  0  0
 14 15  2  0  0  0  0
 14 19  1  0  0  0  0
 15 16  1  0  0  0  0
 15 35  1  0  0  0  0
 16 17  2  0  0  0  0
 16 20  1  0  0  0  0
 17 18  1  0  0  0  0
 17 22  1  0  0  0  0
 18 19  2  0  0  0  0
 18 36  1  0  0  0  0
 19 37  1  0  0  0  0
 20 21  2  0  0  0  0
 20 38  1  0  0  0  0
 21 22  1  0  0  0  0
 22 23  1  0  0  0  0
 23 39  1  0  0  0  0
 23 40  1  0  0  0  0
 23 41  1  0  0  0  0
 24 25  1  0  0  0  0
 24 42  1  0  0  0  0
 24 43  1  0  0  0  0
 25 26  1  0  0  0  0
 25 27  1  0  0  0  0
 25 44  1  0  0  0  0
 26 45  1  0  0  0  0
 26 46  1  0  0  0  0
 27 28  1  0  0  0  0
 28 47  1  0  0  0  0
 28 48  1  0  0  0  0
 28 49  1  0  0  0  0
M  END
>  <Name>
45

>  <IC50[uM]>
0.007

$$$$
