lig_CAT-13i
     RDKit          3D

 46 49  0  0  0  0  0  0  0  0999 V2000
   13.4100   -2.5300   -0.8600 C   0  0  0  0  0  0  0  0  0  0  0  0
   15.3600   -2.5400    0.5300 N   0  0  0  0  0  0  0  0  0  0  0  0
   12.6400   -2.4100   -1.8000 O   0  0  0  0  0  0  0  0  0  0  0  0
   14.9600   -2.7100   -0.9300 C   0  0  1  0  0  0  0  0  0  0  0  0
   15.3500   -3.9500   -1.5200 C   0  0  0  0  0  0  0  0  0  0  0  0
   16.4300   -4.0200   -1.5400 H   0  0  0  0  0  0  0  0  0  0  0  0
   14.9600   -4.0000   -2.5400 H   0  0  0  0  0  0  0  0  0  0  0  0
   13.0500   -2.4800    0.4700 N   0  0  0  0  0  0  0  0  0  0  0  0
   14.2600   -2.4900    1.2600 C   0  0  0  0  0  0  0  0  0  0  0  0
   14.2500   -2.3600    2.6000 N   0  0  0  0  0  0  0  0  0  0  0  0
   11.6600   -2.3300    0.9300 C   0  0  0  0  0  0  0  0  0  0  0  0
   15.7300    4.0400   -0.2700 C   0  0  0  0  0  0  0  0  0  0  0  0
   16.3800    4.7100    1.2200 Cl  0  0  0  0  0  0  0  0  0  0  0  0
   15.6100   -1.5800   -1.7500 C   0  0  0  0  0  0  0  0  0  0  0  0
   16.4600   -1.8600   -2.8100 C   0  0  0  0  0  0  0  0  0  0  0  0
   16.9900   -0.8400   -3.5800 C   0  0  0  0  0  0  0  0  0  0  0  0
   16.6900    0.4800   -3.2800 C   0  0  0  0  0  0  0  0  0  0  0  0
   15.8600    0.7900   -2.2000 C   0  0  0  0  0  0  0  0  0  0  0  0
   15.3100   -0.2500   -1.4400 C   0  0  0  0  0  0  0  0  0  0  0  0
   14.8900    4.7400   -1.0300 C   0  0  0  0  0  0  0  0  0  0  0  0
   16.0600    2.8100   -0.6800 C   0  0  0  0  0  0  0  0  0  0  0  0
   15.5700    2.2200   -1.8400 C   0  0  0  0  0  0  0  0  0  0  0  0
   14.7200    2.9900   -2.6200 C   0  0  0  0  0  0  0  0  0  0  0  0
   14.3700    4.2700   -2.2200 C   0  0  0  0  0  0  0  0  0  0  0  0
   13.7000    4.8800   -2.8200 H   0  0  0  0  0  0  0  0  0  0  0  0
   14.5900    5.7400   -0.7000 H   0  0  0  0  0  0  0  0  0  0  0  0
   14.3300    2.6000   -3.5600 H   0  0  0  0  0  0  0  0  0  0  0  0
   16.7500    2.2300   -0.0700 H   0  0  0  0  0  0  0  0  0  0  0  0
   14.6500   -0.0200   -0.6100 H   0  0  0  0  0  0  0  0  0  0  0  0
   17.1000    1.2800   -3.8900 H   0  0  0  0  0  0  0  0  0  0  0  0
   16.7200   -2.9000   -3.0300 H   0  0  0  0  0  0  0  0  0  0  0  0
   17.6400   -1.0700   -4.4200 H   0  0  0  0  0  0  0  0  0  0  0  0
   13.3700   -2.2900    3.0900 H   0  0  0  0  0  0  0  0  0  0  0  0
   15.1200   -2.3300    3.1100 H   0  0  0  0  0  0  0  0  0  0  0  0
   11.3300   -1.3100    0.7400 H   0  0  0  0  0  0  0  0  0  0  0  0
   11.6100   -2.5500    1.9900 H   0  0  0  0  0  0  0  0  0  0  0  0
   11.0300   -3.0300    0.3800 H   0  0  0  0  0  0  0  0  0  0  0  0
   14.7600   -6.3300   -1.4600 C   0  0  0  0  0  0  0  0  0  0  0  0
   14.9400   -7.2000   -0.8400 H   0  0  0  0  0  0  0  0  0  0  0  0
   15.1100   -6.4200   -2.4800 H   0  0  0  0  0  0  0  0  0  0  0  0
   14.8400   -4.9800   -0.8000 C   0  0  0  0  0  0  0  0  0  0  0  0
   15.0700   -4.9400    0.2600 H   0  0  0  0  0  0  0  0  0  0  0  0
   13.5100   -5.5400   -1.2100 C   0  0  0  0  0  0  0  0  0  0  0  0
   13.0100   -5.1000   -2.0700 H   0  0  0  0  0  0  0  0  0  0  0  0
   12.8400   -5.8800   -0.4300 H   0  0  0  0  0  0  0  0  0  0  0  0
   16.2644   -2.4672    0.9738 H   0  0  0  0  0  0  0  0  0  0  0  0
  1  3  2  0
  1  4  1  0
  1  8  1  0
  2  4  1  0
  2  9  2  0
  2 46  1  0
  4 14  1  0
  4  5  1  6
  5  7  1  0
  5  6  1  0
  5 41  1  0
  8 11  1  0
  8  9  1  0
  9 10  1  0
 10 33  1  0
 10 34  1  0
 11 37  1  0
 11 35  1  0
 11 36  1  0
 12 20  2  0
 12 21  1  0
 12 13  1  0
 14 15  2  0
 14 19  1  0
 15 16  1  0
 15 31  1  0
 16 32  1  0
 16 17  2  0
 17 30  1  0
 17 18  1  0
 18 22  1  0
 18 19  2  0
 19 29  1  0
 20 24  1  0
 20 26  1  0
 21 22  2  0
 21 28  1  0
 22 23  1  0
 23 27  1  0
 23 24  2  0
 24 25  1  0
 38 40  1  0
 38 43  1  0
 38 39  1  0
 38 41  1  0
 41 43  1  0
 41 42  1  0
 43 44  1  0
 43 45  1  0
M  CHG  1   2   1
M  END
>  <s_m_entry_id>  (1) 
21

>  <s_m_entry_name>  (1) 
lig_CAT-13i.1

>  <s_m_Source_Path>  (1) 
C:\Users\dhahn3\Downloads\bace

>  <s_m_Source_File>  (1) 
lig_CAT-13i.sdf

>  <i_m_Source_File_Index>  (1) 
1

$$$$
