# Molecule written by the XED library from Cresset
@<TRIPOS>MOLECULE
CatS_172
    90     94      1
SMALL
USER_CHARGES
@<TRIPOS>ATOM
      1  C1          1.3339   16.0010   -5.8729 O.3       1 MOL1       -0.4397
      2  C2         -0.0730   16.6139   -5.7500 C.3       1 MOL1       -0.0117
      3  C3         -0.9227   15.7400   -4.8440 C.3       1 MOL1       -0.0539
      4  C4         -1.1369   14.3780   -5.4879 C.3       1 MOL1       -0.0578
      5  N1         -1.7891   14.4969   -6.7951 N.4       1 MOL1       -0.2281
      6  C5         -0.9682   15.3260   -7.7038 C.3       1 MOL1       -0.0578
      7  C6         -0.7129   16.7182   -7.1278 C.3       1 MOL1       -0.0539
      8  C7         -2.0430   13.1670   -7.4036 C.3       1 MOL1       -0.0328
      9  C8         -3.3092   13.0530   -8.2947 C.3       1 MOL1        0.0191
     10  C9         -3.4939   11.6570   -8.9740 C.3       1 MOL1        0.0979
     11  N2         -4.3588   10.4680   -8.7431 N.pl3     1 MOL1       -0.0670
     12  C10        -5.5840   10.1768   -9.2680 C.ar      1 MOL1        0.0572
     13  C11        -6.2739    9.2901   -8.5489 C.ar      1 MOL1       -0.0684
     14  C12        -5.4101    8.9541   -7.4849 C.ar      1 MOL1        0.0392
     15  N3         -4.2989    9.6549   -7.6451 N.2       1 MOL1       -0.2943
     16  C13        -5.6730    8.0780   -6.3410 C.ar      1 MOL1       -0.0066
     17  C14        -4.6270    7.3004   -5.8859 C.ar      1 MOL1       -0.0846
     18  C15        -4.7569    6.5311   -4.7569 C.ar      1 MOL1       -0.0687
     19  C16        -5.9250    6.5021   -4.0209 C.ar      1 MOL1        0.0171
     20  C17        -7.0082    7.2398   -4.4828 C.ar      1 MOL1        0.0480
     21  C18        -6.8690    7.9989   -5.6309 C.ar      1 MOL1       -0.0655
     22  S1         -8.6063    7.3360   -3.6277 S.3       1 MOL1       -0.1783
     23  C19        -9.4422    8.9121   -3.1979 C.3       1 MOL1       -0.0087
     24  C20        -8.3441    9.9561   -2.8597 C.3       1 MOL1       -0.0441
     25  N4         -8.6161   11.0729   -1.9190 N.4       1 MOL1       -0.2282
     26  C21       -10.0008   11.5207   -2.0632 C.3       1 MOL1       -0.0507
     27  C22       -10.3279   12.6039   -1.0381 C.3       1 MOL1       -0.0181
     28  C23        -9.3919   13.7980   -1.1520 C.3       1 MOL1        0.1870
     29  C24        -7.9517   13.3157   -1.1533 C.3       1 MOL1       -0.0181
     30  C25        -7.7232   12.2040   -2.1671 C.3       1 MOL1       -0.0507
     31  C26        -5.8592    5.6670   -2.7469 C.3       1 MOL1        0.4149
     32  F2         -7.0140    4.9253   -2.5169 F         1 MOL1       -0.1514
     33  F3         -5.6489    6.4551   -1.6219 F         1 MOL1       -0.1514
     34  F4         -4.8281    4.7411   -2.8282 F         1 MOL1       -0.1514
     35  C27        -7.6889    8.8533   -8.8999 C.3       1 MOL1        0.1169
     36  N5         -8.3879    9.7008   -9.8890 N.3       1 MOL1       -0.4606
     37  C28        -7.4590   10.0388  -10.9909 C.3       1 MOL1        0.0844
     38  C29        -6.2001   10.8081  -10.5067 C.3       1 MOL1       -0.0158
     39  S2         -9.9432    9.2749  -10.1869 S.3       1 MOL1        0.4316
     40  O1         -9.9671    7.8830   -9.8720 O.2       1 MOL1       -0.3139
     41  O2        -10.1032    9.4901  -11.5877 O.2       1 MOL1       -0.3139
     42  C30       -11.5721    9.7761   -9.5749 C.3       1 MOL1        0.0421
     43  C31         0.1061   18.0261   -5.1610 C.3       1 MOL1       -0.0891
     44  H28        -9.5810   14.5220   -0.2143 F         1 MOL1       -0.1808
     45  H          -9.6721   14.4920   -2.3298 F         1 MOL1       -0.1808
     46  H1         -4.2389   13.1650   -7.5459 O.3       1 MOL1       -0.4408
     47  O3         -3.4290   14.1698   -9.1869 H         1 MOL1        0.0680
     48  H5         -1.9700   16.2878   -4.6291 H         1 MOL1        0.0491
     49  H6         -0.3638   15.6000   -3.7912 H         1 MOL1        0.0491
     50  H7         -0.0640   13.8449   -5.4830 H         1 MOL1        0.0529
     51  H8         -1.8559   13.7672   -4.7461 H         1 MOL1        0.0529
     52  H9          0.0861   14.7891   -7.9052 H         1 MOL1        0.0529
     53  H10        -1.5381   15.4580   -8.7510 H         1 MOL1        0.0529
     54  H11        -1.7711   17.2781   -7.0540 H         1 MOL1        0.0491
     55  H12        -0.0081   17.3399   -7.8758 H         1 MOL1        0.0491
     56  H13        -1.1190   12.8881   -8.1170 H         1 MOL1        0.0549
     57  H14        -2.1011   12.3480   -6.5278 H         1 MOL1        0.0549
     58  H15        -3.6390   11.9001  -10.1399 H         1 MOL1        0.0624
     59  H16        -2.3969   11.1732   -8.8922 H         1 MOL1        0.0624
     60  H17        -3.7551    7.3130   -6.3768 H         1 MOL1        0.0910
     61  H18        -3.9720    5.9943   -4.4510 H         1 MOL1        0.0908
     62  H19        -7.6538    8.5290   -5.9437 H         1 MOL1        0.0929
     63  H20       -10.1219    8.7889   -2.2208 H         1 MOL1        0.0553
     64  H21       -10.1121    9.2963   -4.1159 H         1 MOL1        0.0553
     65  H22        -7.3821    9.3488   -2.4770 H         1 MOL1        0.0547
     66  H23        -8.0589   10.4588   -3.9129 H         1 MOL1        0.0547
     67  H24       -10.6992   10.5540   -1.9231 H         1 MOL1        0.0529
     68  H25       -10.1970   11.9491   -3.1672 H         1 MOL1        0.0529
     69  H26       -11.4379   13.0199   -1.2279 H         1 MOL1        0.0526
     70  H27       -10.2710   12.1601    0.0760 H         1 MOL1        0.0526
     71  H29        -7.6900   12.9481   -0.0398 H         1 MOL1        0.0526
     72  H30        -7.2301   14.2411   -1.4130 H         1 MOL1        0.0526
     73  H31        -7.9248   12.6462   -3.2640 H         1 MOL1        0.0529
     74  H32        -6.5719   11.8759   -2.0900 H         1 MOL1        0.0529
     75  H33        -8.3718    8.9080   -7.9170 H         1 MOL1        0.0628
     76  H34        -7.6540    7.7251   -9.3070 H         1 MOL1        0.0628
     77  H35        -7.1280    9.0281  -11.5449 H         1 MOL1        0.0601
     78  H36        -8.0408   10.7380  -11.7743 H         1 MOL1        0.0601
     79  H37        -5.3911   10.8441  -11.3930 H         1 MOL1        0.0516
     80  H38        -6.5251   11.9300  -10.2320 H         1 MOL1        0.0516
     81  H39       -11.7831   10.9189   -9.8742 H         1 MOL1        0.0588
     82  H40       -11.6088    9.6608   -8.3811 H         1 MOL1        0.0588
     83  H41       -12.4132    9.0752  -10.0658 H         1 MOL1        0.0588
     84  H43        -0.9660   18.5279   -4.9668 H         1 MOL1        0.0457
     85  H44         0.7303   18.7019   -5.9331 H         1 MOL1        0.0457
     86  H45         0.7100   17.9571   -4.1260 H         1 MOL1        0.0457
     87  H          -2.5937   14.9081   -6.6691 H         1 MOL1        0.1922
     88  H          -8.4916   10.7729   -1.0667 H         1 MOL1        0.1922
     89  H           1.9269   16.5606   -6.4620 H         1 MOL1        0.3291
     90  H          -5.1144   13.1009   -8.0373 H         1 MOL1        0.3291
@<TRIPOS>BOND
     1      1      2 1 
     2      2      3 1 
     3      2      7 1 
     4      2     43 1 
     5      3      4 1 
     6      4      5 1 
     7      5      6 1 
     8      5      8 1 
     9      6      7 1 
    10      8      9 1 
    11      9     10 1 
    12      9     46 1 
    13     10     11 1 
    14     11     12 ar
    15     11     15 ar
    16     12     13 ar
    17     12     38 1 
    18     13     14 ar
    19     13     35 1 
    20     14     15 ar
    21     14     16 1 
    22     16     17 ar
    23     16     21 ar
    24     17     18 ar
    25     18     19 ar
    26     19     20 ar
    27     19     31 1 
    28     20     21 ar
    29     20     22 1 
    30     22     23 1 
    31     23     24 1 
    32     24     25 1 
    33     25     26 1 
    34     25     30 1 
    35     26     27 1 
    36     27     28 1 
    37     28     29 1 
    38     28     44 1 
    39     28     45 1 
    40     29     30 1 
    41     31     32 1 
    42     31     33 1 
    43     31     34 1 
    44     35     36 1 
    45     36     37 1 
    46     36     39 1 
    47     37     38 1 
    48     39     40 2 
    49     39     41 2 
    50     39     42 1 
    51      3     48 1 
    52      3     49 1 
    53      4     50 1 
    54      4     51 1 
    55      6     52 1 
    56      6     53 1 
    57      7     54 1 
    58      7     55 1 
    59      8     56 1 
    60      8     57 1 
    61      9     47 1 
    62     10     58 1 
    63     10     59 1 
    64     17     60 1 
    65     18     61 1 
    66     21     62 1 
    67     23     63 1 
    68     23     64 1 
    69     24     65 1 
    70     24     66 1 
    71     26     67 1 
    72     26     68 1 
    73     27     69 1 
    74     27     70 1 
    75     29     71 1 
    76     29     72 1 
    77     30     73 1 
    78     30     74 1 
    79     35     75 1 
    80     35     76 1 
    81     37     77 1 
    82     37     78 1 
    83     38     79 1 
    84     38     80 1 
    85     42     81 1 
    86     42     82 1 
    87     42     83 1 
    88     43     84 1 
    89     43     85 1 
    90     43     86 1 
    91     46     90 1 
    92     87      5 1 
    93     88     25 1 
    94     89      1 1 
@<TRIPOS>SUBSTRUCTURE
     1 MOL1         1 MOLECULE          1 A
