lig_18630-1
     RDKit          3D

 41 42  0  0  0  0  0  0  0  0999 V2000
   24.0210   12.2420   30.2760 C   0  0  0  0  0  0  0  0  0  0  0  0
   23.2930   10.9220   30.5380 C   0  0  0  0  0  0  0  0  0  0  0  0
   22.1430   11.2080   31.3310 O   0  0  0  0  0  0  0  0  0  0  0  0
   21.3310   10.1710   31.7580 C   0  0  0  0  0  0  0  0  0  0  0  0
   21.6810    8.9090   31.3860 N   0  0  0  0  0  0  0  0  0  0  0  0
   20.8900    7.8930   31.7600 C   0  0  0  0  0  0  0  0  0  0  0  0
   19.7540    8.0600   32.5350 C   0  0  0  0  0  0  0  0  0  0  0  0
   19.4030    9.3420   32.9180 C   0  0  0  0  0  0  0  0  0  0  0  0
   18.2460    9.4400   33.6790 N   0  0  0  0  0  0  0  0  0  0  0  0
   20.1940   10.4360   32.5290 C   0  0  0  0  0  0  0  0  0  0  0  0
   19.8750   11.8150   32.8830 C   0  0  0  0  0  0  0  0  0  0  0  0
   19.6300   12.9120   33.1600 N   0  0  0  0  0  0  0  0  0  0  0  0
   21.3870    6.6850   31.3200 N   0  0  0  0  0  0  0  0  0  0  0  0
   20.7630    5.5180   31.1290 C   0  0  0  0  0  0  0  0  0  0  0  0
   19.5490    5.3720   31.2620 O   0  0  0  0  0  0  0  0  0  0  0  0
   21.6080    4.3050   30.7110 C   0  0  0  0  0  0  0  0  0  0  0  0
   23.1040    4.5840   30.5580 C   0  0  0  0  0  0  0  0  0  0  0  0
   24.0150    4.0450   31.4690 C   0  0  0  0  0  0  0  0  0  0  0  0
   25.3760    4.3280   31.3490 C   0  0  0  0  0  0  0  0  0  0  0  0
   25.8350    5.1530   30.3200 C   0  0  0  0  0  0  0  0  0  0  0  0
   27.3130    5.4670   30.1980 C   0  0  0  0  0  0  0  0  0  0  0  0
   24.9280    5.6840   29.4010 C   0  0  0  0  0  0  0  0  0  0  0  0
   23.5680    5.4010   29.5200 C   0  0  0  0  0  0  0  0  0  0  0  0
   24.9130   12.0840   29.6700 H   0  0  0  0  0  0  0  0  0  0  0  0
   23.3750   12.9410   29.7440 H   0  0  0  0  0  0  0  0  0  0  0  0
   24.3250   12.7140   31.2100 H   0  0  0  0  0  0  0  0  0  0  0  0
   22.9980   10.4590   29.5940 H   0  0  0  0  0  0  0  0  0  0  0  0
   23.9580   10.2280   31.0570 H   0  0  0  0  0  0  0  0  0  0  0  0
   19.1520    7.2180   32.8340 H   0  0  0  0  0  0  0  0  0  0  0  0
   17.7760    8.5960   33.9950 H   0  0  0  0  0  0  0  0  0  0  0  0
   17.8730   10.3510   33.9370 H   0  0  0  0  0  0  0  0  0  0  0  0
   22.3720    6.7300   31.1260 H   0  0  0  0  0  0  0  0  0  0  0  0
   21.4430    3.5140   31.4420 H   0  0  0  0  0  0  0  0  0  0  0  0
   21.2200    3.9320   29.7670 H   0  0  0  0  0  0  0  0  0  0  0  0
   23.6740    3.4070   32.2730 H   0  0  0  0  0  0  0  0  0  0  0  0
   26.0730    3.9080   32.0600 H   0  0  0  0  0  0  0  0  0  0  0  0
   27.8100    4.7110   29.5900 H   0  0  0  0  0  0  0  0  0  0  0  0
   27.4730    6.4410   29.7320 H   0  0  0  0  0  0  0  0  0  0  0  0
   27.7940    5.4910   31.1770 H   0  0  0  0  0  0  0  0  0  0  0  0
   25.2770    6.3170   28.5970 H   0  0  0  0  0  0  0  0  0  0  0  0
   22.8720    5.8250   28.8100 H   0  0  0  0  0  0  0  0  0  0  0  0
  1  2  1  0
  1 24  1  0
  1 25  1  0
  1 26  1  0
  2  3  1  0
  2 27  1  0
  2 28  1  0
  3  4  1  0
  4 10  2  0
  4  5  1  0
  5  6  2  0
  6  7  1  0
  6 13  1  0
  7  8  2  0
  7 29  1  0
  8  9  1  0
  8 10  1  0
  9 30  1  0
  9 31  1  0
 10 11  1  0
 11 12  3  0
 13 14  1  0
 13 32  1  0
 14 15  2  0
 14 16  1  0
 16 17  1  0
 16 33  1  0
 16 34  1  0
 17 23  1  0
 17 18  2  0
 18 19  1  0
 18 35  1  0
 19 20  2  0
 19 36  1  0
 20 21  1  0
 20 22  1  0
 21 37  1  0
 21 38  1  0
 21 39  1  0
 22 23  2  0
 22 40  1  0
 23 41  1  0
M  END
$$$$
