lig_60
  -OEChem-01312017313D

 43 45  0     0  0  0  0  0  0999 V2000
    3.8100  -50.0800    6.4300 O   0  5  0  0  0  0  0  0  0  0  0  0
    2.9400  -49.1700    6.5100 C   0  0  0  0  0  0  0  0  0  0  0  0
    3.2800  -47.9700    6.6700 O   0  0  0  0  0  0  0  0  0  0  0  0
    1.5200  -49.6100    6.4100 C   0  0  0  0  0  0  0  0  0  0  0  0
    1.0100  -51.1700    6.8300 S   0  0  0  0  0  0  0  0  0  0  0  0
   -0.6500  -51.0200    6.4700 C   0  0  0  0  0  0  0  0  0  0  0  0
   -1.7400  -51.8800    6.5500 C   0  0  0  0  0  0  0  0  0  0  0  0
   -1.5900  -52.9000    6.8900 H   0  0  0  0  0  0  0  0  0  0  0  0
   -3.0100  -51.4600    6.1900 C   0  0  0  0  0  0  0  0  0  0  0  0
   -3.8500  -52.1300    6.2600 H   0  0  0  0  0  0  0  0  0  0  0  0
   -3.1800  -50.1500    5.7300 C   0  0  0  0  0  0  0  0  0  0  0  0
   -4.1700  -49.8000    5.4500 H   0  0  0  0  0  0  0  0  0  0  0  0
   -2.1000  -49.2800    5.6300 C   0  0  0  0  0  0  0  0  0  0  0  0
   -2.2500  -48.2700    5.2600 H   0  0  0  0  0  0  0  0  0  0  0  0
   -0.8300  -49.7000    6.0100 C   0  0  0  0  0  0  0  0  0  0  0  0
    0.3700  -48.9100    5.9700 C   0  0  0  0  0  0  0  0  0  0  0  0
    0.4000  -47.4900    5.5200 C   0  0  0  0  0  0  0  0  0  0  0  0
    1.1900  -47.3900    4.7800 H   0  0  0  0  0  0  0  0  0  0  0  0
   -0.5600  -47.2600    5.0600 H   0  0  0  0  0  0  0  0  0  0  0  0
    0.6500  -46.4800    6.6000 C   0  0  0  0  0  0  0  0  0  0  0  0
    0.6300  -45.5000    6.1300 H   0  0  0  0  0  0  0  0  0  0  0  0
    1.6500  -46.6700    6.9900 H   0  0  0  0  0  0  0  0  0  0  0  0
   -0.2800  -46.4300    7.7600 C   0  0  0  0  0  0  0  0  0  0  0  0
   -0.0300  -45.5900    8.4000 H   0  0  0  0  0  0  0  0  0  0  0  0
   -0.1900  -47.3600    8.3300 H   0  0  0  0  0  0  0  0  0  0  0  0
   -1.5900  -46.2900    7.3300 O   0  0  0  0  0  0  0  0  0  0  0  0
   -2.6600  -46.2600    8.1900 C   0  0  0  0  0  0  0  0  0  0  0  0
   -2.6200  -46.9200    9.3900 C   0  0  0  0  0  0  0  0  0  0  0  0
   -1.7400  -47.4900    9.6800 H   0  0  0  0  0  0  0  0  0  0  0  0
   -3.7300  -46.8600   10.2300 C   0  0  0  0  0  0  0  0  0  0  0  0
   -3.7000  -47.5500   11.4800 C   0  0  0  0  0  0  0  0  0  0  0  0
   -2.7400  -48.0500   11.6000 H   0  0  0  0  0  0  0  0  0  0  0  0
   -4.5000  -48.2800   11.5200 H   0  0  0  0  0  0  0  0  0  0  0  0
   -3.8300  -46.8300   12.2900 H   0  0  0  0  0  0  0  0  0  0  0  0
   -4.8700  -46.1400    9.8700 C   0  0  0  0  0  0  0  0  0  0  0  0
   -6.2500  -46.0800   10.9500 Cl  0  0  0  0  0  0  0  0  0  0  0  0
   -4.8900  -45.4700    8.6600 C   0  0  0  0  0  0  0  0  0  0  0  0
   -6.0500  -44.7300    8.2700 C   0  0  0  0  0  0  0  0  0  0  0  0
   -6.8100  -44.8000    9.0500 H   0  0  0  0  0  0  0  0  0  0  0  0
   -6.4500  -45.1400    7.3400 H   0  0  0  0  0  0  0  0  0  0  0  0
   -5.7800  -43.6900    8.1300 H   0  0  0  0  0  0  0  0  0  0  0  0
   -3.7800  -45.5300    7.8200 C   0  0  0  0  0  0  0  0  0  0  0  0
   -3.8000  -45.0000    6.8700 H   0  0  0  0  0  0  0  0  0  0  0  0
 17 18  1  0  0  0  0
 17 19  1  0  0  0  0
 13 14  1  0  0  0  0
 11 12  1  0  0  0  0
 16 17  1  0  0  0  0
 17 20  1  0  0  0  0
 11 13  2  0  0  0  0
 13 15  1  0  0  0  0
  9 11  1  0  0  0  0
 15 16  1  0  0  0  0
  4 16  2  0  0  0  0
  6 15  2  0  0  0  0
 20 21  1  0  0  0  0
  9 10  1  0  0  0  0
  7  9  2  0  0  0  0
  2  4  1  0  0  0  0
  4  5  1  0  0  0  0
  1  2  1  0  0  0  0
  6  7  1  0  0  0  0
  5  6  1  0  0  0  0
  2  3  2  0  0  0  0
  7  8  1  0  0  0  0
 20 22  1  0  0  0  0
 20 23  1  0  0  0  0
 42 43  1  0  0  0  0
 23 26  1  0  0  0  0
 26 27  1  0  0  0  0
 38 40  1  0  0  0  0
 23 25  1  0  0  0  0
 23 24  1  0  0  0  0
 27 42  2  0  0  0  0
 37 42  1  0  0  0  0
 38 41  1  0  0  0  0
 27 28  1  0  0  0  0
 37 38  1  0  0  0  0
 38 39  1  0  0  0  0
 35 37  2  0  0  0  0
 28 29  1  0  0  0  0
 28 30  2  0  0  0  0
 30 35  1  0  0  0  0
 35 36  1  0  0  0  0
 30 31  1  0  0  0  0
 31 33  1  0  0  0  0
 31 32  1  0  0  0  0
 31 34  1  0  0  0  0
M  CHG  1   1  -1
M  END
$$$$
