lig_CAT-4m
     RDKit          3D

 48 51  0  0  0  0  0  0  0  0999 V2000
   13.4100   -2.5000   -0.8500 C   0  0  0  0  0  0  0  0  0  0  0  0
   15.3800   -2.5400    0.5200 N   0  0  0  0  0  0  0  0  0  0  0  0
   12.6400   -2.3700   -1.7800 O   0  0  0  0  0  0  0  0  0  0  0  0
   14.9600   -2.7100   -0.9300 C   0  0  1  0  0  0  0  0  0  0  0  0
   13.0700   -2.4500    0.4800 N   0  0  0  0  0  0  0  0  0  0  0  0
   14.2800   -2.4800    1.2600 C   0  0  0  0  0  0  0  0  0  0  0  0
   14.2800   -2.3500    2.6000 N   0  0  0  0  0  0  0  0  0  0  0  0
   11.6900   -2.2800    0.9500 C   0  0  0  0  0  0  0  0  0  0  0  0
   15.7300    4.0000   -0.2200 C   0  0  0  0  0  0  0  0  0  0  0  0
   16.1700    4.5000    1.0500 C   0  0  0  0  0  0  0  0  0  0  0  0
   16.6900    3.8800    1.5600 H   0  0  0  0  0  0  0  0  0  0  0  0
   15.2900    4.7600    1.6300 H   0  0  0  0  0  0  0  0  0  0  0  0
   16.7700    5.3900    0.8700 H   0  0  0  0  0  0  0  0  0  0  0  0
   15.2400   -4.1300   -1.4300 C   0  0  0  0  0  0  0  0  0  0  0  0
   16.3700   -4.8200   -1.0300 C   0  0  0  0  0  0  0  0  0  0  0  0
   16.6000   -6.1300   -1.4400 C   0  0  0  0  0  0  0  0  0  0  0  0
   15.7100   -6.7600   -2.2800 C   0  0  0  0  0  0  0  0  0  0  0  0
   14.5900   -6.0800   -2.7200 C   0  0  0  0  0  0  0  0  0  0  0  0
   14.3500   -4.7800   -2.3100 C   0  0  0  0  0  0  0  0  0  0  0  0
   15.6200   -1.5900   -1.7500 C   0  0  0  0  0  0  0  0  0  0  0  0
   16.4600   -1.8800   -2.8200 C   0  0  0  0  0  0  0  0  0  0  0  0
   17.0000   -0.8700   -3.5900 C   0  0  0  0  0  0  0  0  0  0  0  0
   16.7200    0.4600   -3.2900 C   0  0  0  0  0  0  0  0  0  0  0  0
   15.9100    0.7800   -2.2000 C   0  0  0  0  0  0  0  0  0  0  0  0
   15.3500   -0.2500   -1.4500 C   0  0  0  0  0  0  0  0  0  0  0  0
   14.9900    4.7500   -1.0400 C   0  0  0  0  0  0  0  0  0  0  0  0
   14.7100    5.7400   -0.7200 H   0  0  0  0  0  0  0  0  0  0  0  0
   16.0400    2.7600   -0.6300 C   0  0  0  0  0  0  0  0  0  0  0  0
   15.6400    2.2100   -1.8400 C   0  0  0  0  0  0  0  0  0  0  0  0
   14.9000    3.0400   -2.6800 C   0  0  0  0  0  0  0  0  0  0  0  0
   14.5800    2.6800   -3.6500 H   0  0  0  0  0  0  0  0  0  0  0  0
   14.5600    4.3200   -2.2800 N   0  0  0  0  0  0  0  0  0  0  0  0
   16.6500    2.1400    0.0300 H   0  0  0  0  0  0  0  0  0  0  0  0
   14.7000   -0.0100   -0.6100 H   0  0  0  0  0  0  0  0  0  0  0  0
   17.1400    1.2500   -3.9100 H   0  0  0  0  0  0  0  0  0  0  0  0
   16.7000   -2.9200   -3.0500 H   0  0  0  0  0  0  0  0  0  0  0  0
   17.6300   -1.1100   -4.4400 H   0  0  0  0  0  0  0  0  0  0  0  0
   13.4700   -4.2500   -2.6700 H   0  0  0  0  0  0  0  0  0  0  0  0
   17.4900   -6.6600   -1.1100 H   0  0  0  0  0  0  0  0  0  0  0  0
   13.8800   -6.5700   -3.3900 H   0  0  0  0  0  0  0  0  0  0  0  0
   15.8800   -7.7900   -2.6000 H   0  0  0  0  0  0  0  0  0  0  0  0
   17.0900   -4.3300   -0.3700 H   0  0  0  0  0  0  0  0  0  0  0  0
   13.4100   -2.2700    3.1000 H   0  0  0  0  0  0  0  0  0  0  0  0
   15.1500   -2.3400    3.1000 H   0  0  0  0  0  0  0  0  0  0  0  0
   11.3600   -1.2600    0.7700 H   0  0  0  0  0  0  0  0  0  0  0  0
   11.6300   -2.5000    2.0100 H   0  0  0  0  0  0  0  0  0  0  0  0
   11.0300   -2.9600    0.4100 H   0  0  0  0  0  0  0  0  0  0  0  0
   16.2876   -2.4728    0.9580 H   0  0  0  0  0  0  0  0  0  0  0  0
  1  3  2  0
  1  4  1  0
  1  5  1  0
  2  4  1  0
  2  6  2  0
  2 48  1  0
  4 20  1  6
  4 14  1  0
  5  8  1  0
  5  6  1  0
  6  7  1  0
  7 43  1  0
  7 44  1  0
  8 47  1  0
  8 45  1  0
  8 46  1  0
  9 26  2  0
  9 28  1  0
  9 10  1  0
 10 13  1  0
 10 11  1  0
 10 12  1  0
 14 19  1  0
 14 15  2  0
 15 16  1  0
 15 42  1  0
 16 17  2  0
 16 39  1  0
 17 18  1  0
 17 41  1  0
 18 40  1  0
 18 19  2  0
 19 38  1  0
 20 21  2  0
 20 25  1  0
 21 22  1  0
 21 36  1  0
 22 37  1  0
 22 23  2  0
 23 35  1  0
 23 24  1  0
 24 29  1  0
 24 25  2  0
 25 34  1  0
 26 32  1  0
 26 27  1  0
 28 29  2  0
 28 33  1  0
 29 30  1  0
 30 31  1  0
 30 32  2  0
M  CHG  1   2   1
M  END
>  <s_m_entry_id>  (1) 
9

>  <s_m_entry_name>  (1) 
lig_CAT-4m.1

>  <s_m_Source_Path>  (1) 
C:\Users\dhahn3\Downloads\bace

>  <s_m_Source_File>  (1) 
lig_CAT-4m.sdf

>  <i_m_Source_File_Index>  (1) 
1

$$$$
