lig_p38a_3fmk
                    3D
 Structure written by MMmdl.
 46 49  0  0  1  0            999 V2000
   33.6700   34.8100   23.4500 C   0  0  0  0  0  0
   34.8500   39.2100   21.6200 C   0  0  0  0  0  0
   33.0500   38.9400   26.0900 C   0  0  1  0  0  0
   31.5900   39.4100   26.2500 C   0  0  0  0  0  0
   34.0400   38.9800   23.7400 C   0  0  0  0  0  0
   34.5500   34.9800   21.1800 C   0  0  0  0  0  0
   35.1700   35.7800   20.1300 C   0  0  0  0  0  0
   35.2500   37.1300   20.2300 C   0  0  0  0  0  0
   34.8000   37.8100   21.4400 C   0  0  0  0  0  0
   34.3100   37.0400   22.5100 C   0  0  0  0  0  0
   33.6700   39.5700   24.9300 N   0  0  0  0  0  0
   34.3300   33.7800   21.0200 O   0  0  0  0  0  0
   34.2100   35.6200   22.3400 N   0  0  0  0  0  0
   33.9300   37.6500   23.6600 N   0  0  0  0  0  0
   34.4800   39.7900   22.7800 N   0  0  0  0  0  0
   33.8700   39.2400   27.3500 C   0  0  0  0  0  0
   30.7400   38.9500   25.1600 N   0  0  0  0  0  0
   30.2600   39.7700   24.2100 N   0  0  0  0  0  0
   29.6000   38.8900   23.4700 C   0  0  0  0  0  0
   29.6600   37.6200   23.9400 N   0  0  0  0  0  0
   30.3700   37.6600   25.0200 N   0  0  0  0  0  0
   33.5000   35.3800   24.3600 H   0  0  0  0  0  0
   32.7200   34.3600   23.1500 H   0  0  0  0  0  0
   34.3500   34.0000   23.7300 H   0  0  0  0  0  0
   35.2200   39.8600   20.8400 H   0  0  0  0  0  0
   33.0600   37.8600   25.9500 H   0  0  0  0  0  0
   31.1800   39.0200   27.1800 H   0  0  0  0  0  0
   31.5500   40.4900   26.3000 H   0  0  0  0  0  0
   35.7000   37.7300   19.4600 H   0  0  0  0  0  0
   33.7600   40.5700   24.9600 H   0  0  0  0  0  0
   34.9100   38.9300   27.2300 H   0  0  0  0  0  0
   33.8600   40.3000   27.5900 H   0  0  0  0  0  0
   33.4700   38.7000   28.2100 H   0  0  0  0  0  0
   29.0400   39.1700   22.5900 H   0  0  0  0  0  0
   35.6600   35.1800   19.0100 O   0  0  0  0  0  0
   37.2600   38.0600   16.4500 C   0  0  0  0  0  0
   38.0500   37.5200   17.4800 C   0  0  0  0  0  0
   37.5100   36.5500   18.3500 C   0  0  0  0  0  0
   36.1900   36.1200   18.1700 C   0  0  0  0  0  0
   35.4000   36.6500   17.1400 C   0  0  0  0  0  0
   35.9400   37.6200   16.2800 C   0  0  0  0  0  0
   37.7700   38.9800   15.6300 F   0  0  0  0  0  0
   39.0900   37.8600   17.6200 H   0  0  0  0  0  0
   38.2600   36.0400   19.3200 F   0  0  0  0  0  0
   34.3600   36.3100   17.0100 H   0  0  0  0  0  0
   35.3200   38.0500   15.4700 H   0  0  0  0  0  0
  1 13  1  0  0  0
  1 22  1  0  0  0
  1 23  1  0  0  0
  1 24  1  0  0  0
  2  9  1  0  0  0
  2 15  2  0  0  0
  2 25  1  0  0  0
  3  4  1  0  0  0
  3 11  1  0  0  0
  3 16  1  0  0  0
  3 26  1  0  0  0
  4 17  1  0  0  0
  4 27  1  0  0  0
  4 28  1  0  0  0
  5 11  1  0  0  0
  5 14  2  0  0  0
  5 15  1  0  0  0
  6  7  1  0  0  0
  6 12  2  0  0  0
  6 13  1  0  0  0
  7  8  2  0  0  0
  7 35  1  0  0  0
  8  9  1  0  0  0
  8 29  1  0  0  0
  9 10  2  0  0  0
 10 13  1  0  0  0
 10 14  1  0  0  0
 11 30  1  0  0  0
 16 31  1  0  0  0
 16 32  1  0  0  0
 16 33  1  0  0  0
 17 18  1  0  0  0
 17 21  1  0  0  0
 18 19  2  0  0  0
 19 20  1  0  0  0
 19 34  1  0  0  0
 20 21  2  0  0  0
 35 39  1  0  0  0
 36 37  1  0  0  0
 36 41  2  0  0  0
 36 42  1  0  0  0
 37 38  2  0  0  0
 37 43  1  0  0  0
 38 39  1  0  0  0
 38 44  1  0  0  0
 39 40  2  0  0  0
 40 41  1  0  0  0
 40 45  1  0  0  0
 41 46  1  0  0  0
M  END
> <s_m_entry_id>
33

> <s_m_entry_name>
lig_p38a_3fmk.1

> <s_pdb_PDB_TITLE>
MX MODEL

> <i_pdb_PDB_Model>
1

> <r_pdb_PDB_CRYST1_a>
200.9

> <r_pdb_PDB_CRYST1_b>
135.94

> <r_pdb_PDB_CRYST1_c>
254.82

> <r_pdb_PDB_CRYST1_alpha>
90

> <r_pdb_PDB_CRYST1_beta>
90

> <r_pdb_PDB_CRYST1_gamma>
90

> <s_pdb_PDB_CRYST1_Space_Group>
P 1

> <i_pdb_PDB_CRYST1_z>
1

> <s_pdb_PDB_format_version>
3.0

> <s_m_Source_Path>
/users/home/dhahn3/projects/PLBenchmarks/PLBenchmarks/data/2019-12-09_p38/03_docked

> <s_m_Source_File>
lig_p38a_3fmk.pdb

> <i_m_Source_File_Index>
1

$$$$
