lig_CHEMBL3402747_3400_7
  -OEChem-01272013113D

 42 45  0     0  0  0  0  0  0999 V2000
   25.5400   34.0200   52.0100 C   0  0  0  0  0  0  0  0  0  0  0  0
   24.4500   33.7000   53.0000 C   0  0  0  0  0  0  0  0  0  0  0  0
   23.2300   33.4400   52.6000 N   0  0  0  0  0  0  0  0  0  0  0  0
   22.5700   33.1700   53.8000 O   0  0  0  0  0  0  0  0  0  0  0  0
   23.5100   33.3100   54.7600 C   0  0  0  0  0  0  0  0  0  0  0  0
   24.6800   33.6600   54.3000 N   0  0  0  0  0  0  0  0  0  0  0  0
   23.1500   32.9700   56.1700 C   0  0  0  0  0  0  0  0  0  0  0  0
   24.1300   32.9700   57.1700 C   0  0  0  0  0  0  0  0  0  0  0  0
   23.8300   32.5700   58.4600 C   0  0  0  0  0  0  0  0  0  0  0  0
   22.5300   32.1600   58.7800 C   0  0  0  0  0  0  0  0  0  0  0  0
   21.5400   32.1500   57.8000 C   0  0  0  0  0  0  0  0  0  0  0  0
   20.1200   31.7000   58.1500 C   0  0  0  0  0  0  0  0  0  0  0  0
   19.8600   30.2900   57.8300 N   0  0  0  0  0  0  0  0  0  0  0  0
   19.3900   30.0400   56.5300 N   0  0  0  0  0  0  0  0  0  0  0  0
   19.1400   28.8400   56.1000 C   0  0  0  0  0  0  0  0  0  0  0  0
   19.3800   27.7500   57.0400 C   0  0  0  0  0  0  0  0  0  0  0  0
   19.8500   27.9900   58.2900 C   0  0  0  0  0  0  0  0  0  0  0  0
   20.1300   29.3200   58.7800 C   0  0  0  0  0  0  0  0  0  0  0  0
   20.5600   29.5300   59.9200 O   0  0  0  0  0  0  0  0  0  0  0  0
   18.6500   28.5400   54.7400 C   0  0  0  0  0  0  0  0  0  0  0  0
   19.0000   29.3800   53.6700 C   0  0  0  0  0  0  0  0  0  0  0  0
   18.5700   29.1000   52.3800 C   0  0  0  0  0  0  0  0  0  0  0  0
   18.9200   29.9200   51.3600 F   0  0  0  0  0  0  0  0  0  0  0  0
   17.7700   27.9900   52.1300 C   0  0  0  0  0  0  0  0  0  0  0  0
   17.4200   27.1400   53.1800 C   0  0  0  0  0  0  0  0  0  0  0  0
   16.6500   26.0600   52.9400 F   0  0  0  0  0  0  0  0  0  0  0  0
   17.8500   27.4200   54.4700 C   0  0  0  0  0  0  0  0  0  0  0  0
   21.8400   32.5800   56.5100 C   0  0  0  0  0  0  0  0  0  0  0  0
   25.3000   34.9100   51.4400 H   0  0  0  0  0  0  0  0  0  0  0  0
   25.6700   33.2100   51.2900 H   0  0  0  0  0  0  0  0  0  0  0  0
   26.5100   34.1800   52.4800 H   0  0  0  0  0  0  0  0  0  0  0  0
   25.1500   33.2700   56.9400 H   0  0  0  0  0  0  0  0  0  0  0  0
   24.6000   32.5700   59.2200 H   0  0  0  0  0  0  0  0  0  0  0  0
   22.3100   31.8500   59.7900 H   0  0  0  0  0  0  0  0  0  0  0  0
   19.9200   31.9200   59.2100 H   0  0  0  0  0  0  0  0  0  0  0  0
   19.4000   32.3300   57.6200 H   0  0  0  0  0  0  0  0  0  0  0  0
   19.2100   26.7300   56.7600 H   0  0  0  0  0  0  0  0  0  0  0  0
   20.0400   27.1600   58.9500 H   0  0  0  0  0  0  0  0  0  0  0  0
   19.6200   30.2500   53.8300 H   0  0  0  0  0  0  0  0  0  0  0  0
   17.4500   27.7700   51.1300 H   0  0  0  0  0  0  0  0  0  0  0  0
   17.5600   26.7300   55.2600 H   0  0  0  0  0  0  0  0  0  0  0  0
   21.0700   32.5600   55.7500 H   0  0  0  0  0  0  0  0  0  0  0  0
 24 40  1  0  0  0  0
  1 30  1  0  0  0  0
 22 23  1  0  0  0  0
  1 29  1  0  0  0  0
  1 31  1  0  0  0  0
  1  2  1  0  0  0  0
 22 24  2  0  0  0  0
 24 25  1  0  0  0  0
 21 22  1  0  0  0  0
  2  3  2  0  0  0  0
  3  4  1  0  0  0  0
 25 26  1  0  0  0  0
  2  6  1  0  0  0  0
 25 27  2  0  0  0  0
 21 39  1  0  0  0  0
 20 21  2  0  0  0  0
  4  5  1  0  0  0  0
  5  6  2  0  0  0  0
 20 27  1  0  0  0  0
 27 41  1  0  0  0  0
 15 20  1  0  0  0  0
  5  7  1  0  0  0  0
 28 42  1  0  0  0  0
 14 15  2  0  0  0  0
 15 16  1  0  0  0  0
  7 28  2  0  0  0  0
  7  8  1  0  0  0  0
 11 28  1  0  0  0  0
 13 14  1  0  0  0  0
 16 37  1  0  0  0  0
  8 32  1  0  0  0  0
 16 17  2  0  0  0  0
  8  9  2  0  0  0  0
 12 36  1  0  0  0  0
 11 12  1  0  0  0  0
 10 11  2  0  0  0  0
 12 13  1  0  0  0  0
 13 18  1  0  0  0  0
 12 35  1  0  0  0  0
 17 18  1  0  0  0  0
 17 38  1  0  0  0  0
  9 10  1  0  0  0  0
  9 33  1  0  0  0  0
 10 34  1  0  0  0  0
 18 19  2  0  0  0  0
M  END
$$$$
