lig_18631-1
     RDKit          3D

 42 43  0  0  0  0  0  0  0  0999 V2000
   24.0760   12.4050   30.2450 C   0  0  0  0  0  0  0  0  0  0  0  0
   23.3420   11.0800   30.4650 C   0  0  0  0  0  0  0  0  0  0  0  0
   22.2050   11.3420   31.2810 O   0  0  0  0  0  0  0  0  0  0  0  0
   21.4060   10.2920   31.7000 C   0  0  0  0  0  0  0  0  0  0  0  0
   21.7490    9.0410   31.2880 N   0  0  0  0  0  0  0  0  0  0  0  0
   20.9740    8.0120   31.6610 C   0  0  0  0  0  0  0  0  0  0  0  0
   19.8650    8.1560   32.4820 C   0  0  0  0  0  0  0  0  0  0  0  0
   19.5170    9.4280   32.8980 C   0  0  0  0  0  0  0  0  0  0  0  0
   18.3780    9.5090   33.6920 N   0  0  0  0  0  0  0  0  0  0  0  0
   20.2860   10.5350   32.5030 C   0  0  0  0  0  0  0  0  0  0  0  0
   19.9580   11.9050   32.8780 C   0  0  0  0  0  0  0  0  0  0  0  0
   19.7040   12.9960   33.1700 N   0  0  0  0  0  0  0  0  0  0  0  0
   21.4330    6.8280   31.1200 N   0  0  0  0  0  0  0  0  0  0  0  0
   20.8530    5.6280   31.0360 C   0  0  0  0  0  0  0  0  0  0  0  0
   19.7240    5.3670   31.4480 O   0  0  0  0  0  0  0  0  0  0  0  0
   21.6450    4.5580   30.2940 C   0  0  0  0  0  0  0  0  0  0  0  0
   23.0460    4.3200   30.8550 C   0  0  0  0  0  0  0  0  0  0  0  0
   24.1120    5.1700   30.5130 C   0  0  0  0  0  0  0  0  0  0  0  0
   23.8320    6.2510   29.6970 O   0  0  0  0  0  0  0  0  0  0  0  0
   24.8030    7.2850   29.5520 C   0  0  0  0  0  0  0  0  0  0  0  0
   25.3920    4.8830   31.0090 C   0  0  0  0  0  0  0  0  0  0  0  0
   25.6010    3.7980   31.8590 C   0  0  0  0  0  0  0  0  0  0  0  0
   24.5320    2.9790   32.2140 C   0  0  0  0  0  0  0  0  0  0  0  0
   23.2600    3.2340   31.7090 C   0  0  0  0  0  0  0  0  0  0  0  0
   24.9600   12.2660   29.6240 H   0  0  0  0  0  0  0  0  0  0  0  0
   23.4280   13.1270   29.7470 H   0  0  0  0  0  0  0  0  0  0  0  0
   24.3910   12.8400   31.1930 H   0  0  0  0  0  0  0  0  0  0  0  0
   23.0340   10.6530   29.5080 H   0  0  0  0  0  0  0  0  0  0  0  0
   24.0110   10.3650   30.9500 H   0  0  0  0  0  0  0  0  0  0  0  0
   19.2720    7.3090   32.7810 H   0  0  0  0  0  0  0  0  0  0  0  0
   17.8990    8.6600   33.9760 H   0  0  0  0  0  0  0  0  0  0  0  0
   17.9920   10.4140   33.9480 H   0  0  0  0  0  0  0  0  0  0  0  0
   22.3440    6.9280   30.6980 H   0  0  0  0  0  0  0  0  0  0  0  0
   21.0870    3.6240   30.2720 H   0  0  0  0  0  0  0  0  0  0  0  0
   21.7210    4.9000   29.2670 H   0  0  0  0  0  0  0  0  0  0  0  0
   25.0950    7.7040   30.5160 H   0  0  0  0  0  0  0  0  0  0  0  0
   25.6930    6.9310   29.0290 H   0  0  0  0  0  0  0  0  0  0  0  0
   24.3780    8.0950   28.9600 H   0  0  0  0  0  0  0  0  0  0  0  0
   26.2390    5.4990   30.7480 H   0  0  0  0  0  0  0  0  0  0  0  0
   26.5900    3.5910   32.2420 H   0  0  0  0  0  0  0  0  0  0  0  0
   24.6930    2.1320   32.8680 H   0  0  0  0  0  0  0  0  0  0  0  0
   22.4450    2.5730   31.9710 H   0  0  0  0  0  0  0  0  0  0  0  0
  1  2  1  0
  1 25  1  0
  1 26  1  0
  1 27  1  0
  2  3  1  0
  2 28  1  0
  2 29  1  0
  3  4  1  0
  4 10  2  0
  4  5  1  0
  5  6  2  0
  6  7  1  0
  6 13  1  0
  7  8  2  0
  7 30  1  0
  8  9  1  0
  8 10  1  0
  9 31  1  0
  9 32  1  0
 10 11  1  0
 11 12  3  0
 13 14  1  0
 13 33  1  0
 14 15  2  0
 14 16  1  0
 16 17  1  0
 16 34  1  0
 16 35  1  0
 17 24  1  0
 17 18  2  0
 18 19  1  0
 18 21  1  0
 19 20  1  0
 20 36  1  0
 20 37  1  0
 20 38  1  0
 21 22  2  0
 21 39  1  0
 22 23  1  0
 22 40  1  0
 23 24  2  0
 23 41  1  0
 24 42  1  0
M  END
$$$$
