@<TRIPOS>MOLECULE
1
 37 39 0 0 0
SMALL
GASTEIGER
****
Structure written by MMmdl.
@<TRIPOS>ATOM
      1 O          27.5742    1.5579  -11.2202 O.3     1  LIG1       -0.3871
      2 C          27.1479    0.2994  -11.6692 C.3     1  LIG1        0.0826
      3 C          26.5267    0.4129  -13.0689 C.3     1  LIG1       -0.0185
      4 C          25.0255    0.5956  -12.8327 C.3     1  LIG1       -0.0212
      5 C          24.8103   -0.0581  -11.4965 C.ar    1  LIG1        0.0024
      6 C          26.0181   -0.2298  -10.8141 C.ar    1  LIG1        0.0125
      7 C          26.0198   -0.7704   -9.5145 C.ar    1  LIG1        0.1005
      8 C          24.8035   -1.0882   -8.9011 C.ar    1  LIG1       -0.0328
      9 C          23.6009   -0.9385   -9.5957 C.ar    1  LIG1       -0.0172
     10 C          23.6036   -0.4366  -10.9003 C.ar    1  LIG1        0.1320
     11 O          22.4827   -0.2805  -11.6905 O.3     1  LIG1       -0.4556
     12 C          21.2459   -0.5698  -11.1900 C.ar    1  LIG1        0.1326
     13 C          20.6773   -1.8289  -11.4014 C.ar    1  LIG1        0.0160
     14 C          19.4177   -2.1113  -10.8689 C.ar    1  LIG1        0.1283
     15 F          18.8580   -3.3210  -11.0596 F       1  LIG1       -0.2053
     16 C          18.7347   -1.1397  -10.1326 C.ar    1  LIG1       -0.0079
     17 C          19.2914    0.1220   -9.9508 C.ar    1  LIG1        0.0472
     18 CL         18.4240    1.3427   -9.0840 Cl      1  LIG1       -0.0833
     19 C          20.5582    0.4039  -10.4599 C.ar    1  LIG1       -0.0008
     20 S          27.5319   -1.0654   -8.5874 S.O2    1  LIG1        0.0583
     21 O          27.2277   -2.0226   -7.5192 O.2     1  LIG1       -0.1639
     22 O          28.5861   -1.3956   -9.5458 O.2     1  LIG1       -0.1639
     23 C          27.9385    0.6243   -7.8274 C.3     1  LIG1        0.3566
     24 F          27.8181    1.5522   -8.7360 F       1  LIG1       -0.1834
     25 F          27.1029    0.8106   -6.7934 F       1  LIG1       -0.1834
     26 H          28.3584    1.8102  -11.7281 H       1  LIG1        0.2102
     27 H          27.9789   -0.4080  -11.7029 H       1  LIG1        0.0644
     28 H          26.6995   -0.5291  -13.6482 H       1  LIG1        0.0297
     29 H          26.9532    1.2021  -13.6359 H       1  LIG1        0.0297
     30 H          24.7973    1.6781  -12.7806 H       1  LIG1        0.0315
     31 H          24.4358    0.1715  -13.6220 H       1  LIG1        0.0315
     32 H          24.7794   -1.4657   -7.8911 H       1  LIG1        0.0638
     33 H          22.6812   -1.2310   -9.1144 H       1  LIG1        0.0655
     34 H          21.2080   -2.5850  -11.9555 H       1  LIG1        0.0683
     35 H          17.7898   -1.3917   -9.6972 H       1  LIG1        0.0661
     36 H          20.9983    1.3636  -10.2576 H       1  LIG1        0.0669
     37 H          28.9678    0.5905   -7.4583 H       1  LIG1        0.1280
@<TRIPOS>BOND
     1     1     2    1
     2     1    26    1
     3     2     3    1
     4     2     6    1
     5     2    27    1
     6     3     4    1
     7     3    28    1
     8     3    29    1
     9     4     5    1
    10     4    30    1
    11     4    31    1
    12     5     6   ar
    13     5    10   ar
    14     6     7   ar
    15     7     8   ar
    16     7    20    1
    17     8     9   ar
    18     8    32    1
    19     9    10   ar
    20     9    33    1
    21    10    11    1
    22    11    12    1
    23    12    13   ar
    24    12    19   ar
    25    13    14   ar
    26    13    34    1
    27    14    15    1
    28    14    16   ar
    29    16    17   ar
    30    16    35    1
    31    17    18    1
    32    17    19   ar
    33    19    36    1
    34    20    21    2
    35    20    22    2
    36    20    23    1
    37    23    24    1
    38    23    25    1
    39    23    37    1
