1
 OpenBabel02152110423D
Structure written by MMmdl.
 37 39  0  0  1  0  0  0  0  0999 V2000
   27.5742    1.5579  -11.2202 O   0  0  0  0  0  0  0  0  0  0  0  0
   27.1479    0.2994  -11.6692 C   0  0  2  0  0  0  0  0  0  0  0  0
   26.5267    0.4129  -13.0689 C   0  0  0  0  0  0  0  0  0  0  0  0
   25.0255    0.5956  -12.8327 C   0  0  0  0  0  0  0  0  0  0  0  0
   24.8103   -0.0581  -11.4965 C   0  0  0  0  0  0  0  0  0  0  0  0
   26.0181   -0.2298  -10.8141 C   0  0  0  0  0  0  0  0  0  0  0  0
   26.0198   -0.7704   -9.5145 C   0  0  0  0  0  0  0  0  0  0  0  0
   24.8035   -1.0882   -8.9011 C   0  0  0  0  0  0  0  0  0  0  0  0
   23.6009   -0.9385   -9.5957 C   0  0  0  0  0  0  0  0  0  0  0  0
   23.6036   -0.4366  -10.9003 C   0  0  0  0  0  0  0  0  0  0  0  0
   22.4827   -0.2805  -11.6905 O   0  0  0  0  0  0  0  0  0  0  0  0
   21.2459   -0.5698  -11.1900 C   0  0  0  0  0  0  0  0  0  0  0  0
   20.6773   -1.8289  -11.4014 C   0  0  0  0  0  0  0  0  0  0  0  0
   19.4177   -2.1113  -10.8689 C   0  0  0  0  0  0  0  0  0  0  0  0
   18.8580   -3.3210  -11.0596 F   0  0  0  0  0  0  0  0  0  0  0  0
   18.7347   -1.1397  -10.1326 C   0  0  0  0  0  0  0  0  0  0  0  0
   19.2914    0.1220   -9.9508 C   0  0  0  0  0  0  0  0  0  0  0  0
   18.4240    1.3427   -9.0840 Cl  0  0  0  0  0  0  0  0  0  0  0  0
   20.5582    0.4039  -10.4599 C   0  0  0  0  0  0  0  0  0  0  0  0
   27.5319   -1.0654   -8.5874 S   0  0  0  0  0  0  0  0  0  0  0  0
   27.2277   -2.0226   -7.5192 O   0  0  0  0  0  0  0  0  0  0  0  0
   28.5861   -1.3956   -9.5458 O   0  0  0  0  0  0  0  0  0  0  0  0
   27.9385    0.6243   -7.8274 C   0  0  0  0  0  0  0  0  0  0  0  0
   27.8181    1.5522   -8.7360 F   0  0  0  0  0  0  0  0  0  0  0  0
   27.1029    0.8106   -6.7934 F   0  0  0  0  0  0  0  0  0  0  0  0
   28.3584    1.8102  -11.7281 H   0  0  0  0  0  0  0  0  0  0  0  0
   27.9789   -0.4080  -11.7029 H   0  0  0  0  0  0  0  0  0  0  0  0
   26.6995   -0.5291  -13.6482 H   0  0  0  0  0  0  0  0  0  0  0  0
   26.9532    1.2021  -13.6359 H   0  0  0  0  0  0  0  0  0  0  0  0
   24.7973    1.6781  -12.7806 H   0  0  0  0  0  0  0  0  0  0  0  0
   24.4358    0.1715  -13.6220 H   0  0  0  0  0  0  0  0  0  0  0  0
   24.7794   -1.4657   -7.8911 H   0  0  0  0  0  0  0  0  0  0  0  0
   22.6812   -1.2310   -9.1144 H   0  0  0  0  0  0  0  0  0  0  0  0
   21.2080   -2.5850  -11.9555 H   0  0  0  0  0  0  0  0  0  0  0  0
   17.7898   -1.3917   -9.6972 H   0  0  0  0  0  0  0  0  0  0  0  0
   20.9983    1.3636  -10.2576 H   0  0  0  0  0  0  0  0  0  0  0  0
   28.9678    0.5905   -7.4583 H   0  0  0  0  0  0  0  0  0  0  0  0
  1  2  1  0  0  0  0
  1 26  1  0  0  0  0
  2  3  1  0  0  0  0
  2  6  1  0  0  0  0
  2 27  1  6  0  0  0
  3  4  1  0  0  0  0
  3 28  1  0  0  0  0
  3 29  1  0  0  0  0
  4  5  1  0  0  0  0
  4 30  1  0  0  0  0
  4 31  1  0  0  0  0
  5  6  2  0  0  0  0
  5 10  1  0  0  0  0
  6  7  1  0  0  0  0
  7  8  2  0  0  0  0
  7 20  1  0  0  0  0
  8  9  1  0  0  0  0
  8 32  1  0  0  0  0
  9 10  2  0  0  0  0
  9 33  1  0  0  0  0
 10 11  1  0  0  0  0
 11 12  1  0  0  0  0
 12 13  2  0  0  0  0
 12 19  1  0  0  0  0
 13 14  1  0  0  0  0
 13 34  1  0  0  0  0
 14 15  1  0  0  0  0
 14 16  2  0  0  0  0
 16 17  1  0  0  0  0
 16 35  1  0  0  0  0
 17 18  1  0  0  0  0
 17 19  2  0  0  0  0
 19 36  1  0  0  0  0
 20 21  2  0  0  0  0
 20 22  2  0  0  0  0
 20 23  1  0  0  0  0
 23 24  1  0  0  0  0
 23 25  1  0  0  0  0
 23 37  1  0  0  0  0
M  END
>  <ID>
1

>  <IC50[uM](SPA)>
0.005

$$$$
