@<TRIPOS>MOLECULE
124
 32 33 0 0 0
SMALL
GASTEIGER
****
Structure written by MMmdl.
@<TRIPOS>ATOM
      1 C          24.8310   -0.0580  -11.4927 C.ar    1  LIG1        0.0614
      2 C          26.0235   -0.2330  -10.7891 C.ar    1  LIG1       -0.0245
      3 C          25.9987   -0.7743   -9.5096 C.ar    1  LIG1        0.0982
      4 C          24.7856   -1.0874   -8.8994 C.ar    1  LIG1       -0.0331
      5 C          23.6010   -0.9335   -9.6065 C.ar    1  LIG1       -0.0171
      6 C          23.6090   -0.4396  -10.9170 C.ar    1  LIG1        0.1371
      7 O          22.4819   -0.2891  -11.6902 O.3     1  LIG1       -0.4554
      8 C          21.2436   -0.5778  -11.1838 C.ar    1  LIG1        0.1326
      9 C          20.6717   -1.8245  -11.3930 C.ar    1  LIG1        0.0160
     10 C          19.4142   -2.1154  -10.8705 C.ar    1  LIG1        0.1283
     11 C          18.7356   -1.1376  -10.1307 C.ar    1  LIG1       -0.0079
     12 C          19.2836    0.1166   -9.9443 C.ar    1  LIG1        0.0472
     13 CL         18.4182    1.3429   -9.0771 Cl      1  LIG1       -0.0833
     14 C          20.5528    0.3972  -10.4460 C.ar    1  LIG1       -0.0008
     15 S          27.5088   -1.0841   -8.6332 S.O2    1  LIG1        0.0908
     16 O          27.2224   -2.0236   -7.5339 O.2     1  LIG1       -0.1612
     17 O          28.5286   -1.4187   -9.6099 O.2     1  LIG1       -0.1612
     18 C          27.9364    0.5884   -7.9114 C.3     1  LIG1        0.5261
     19 F          27.0434    0.9305   -6.9901 F       1  LIG1       -0.1500
     20 F          29.1248    0.3945   -7.3800 F       1  LIG1       -0.1500
     21 C          24.8632    0.5892  -12.8609 C.3     1  LIG1        0.2678
     22 F          18.8482   -3.3161  -11.0632 F       1  LIG1       -0.2053
     23 F          28.0161    1.4963   -8.8897 F       1  LIG1       -0.1500
     24 F          24.9720    1.8976  -12.6428 F       1  LIG1       -0.2038
     25 F          25.8923    0.1745  -13.6008 F       1  LIG1       -0.2038
     26 H          26.9738    0.0481  -11.2370 H       1  LIG1        0.0642
     27 H          24.7621   -1.4743   -7.8944 H       1  LIG1        0.0638
     28 H          22.6769   -1.2285   -9.1344 H       1  LIG1        0.0655
     29 H          21.2027   -2.5903  -11.9465 H       1  LIG1        0.0683
     30 H          17.7913   -1.4073   -9.6929 H       1  LIG1        0.0661
     31 H          20.9858    1.3555  -10.2466 H       1  LIG1        0.0669
     32 H          23.9655    0.4033  -13.4518 H       1  LIG1        0.1073
@<TRIPOS>BOND
     1     1     2   ar
     2     1     6   ar
     3     1    21    1
     4     2     3   ar
     5     2    26    1
     6     3     4   ar
     7     3    15    1
     8     4     5   ar
     9     4    27    1
    10     5     6   ar
    11     5    28    1
    12     6     7    1
    13     7     8    1
    14     8     9   ar
    15     8    14   ar
    16     9    10   ar
    17     9    29    1
    18    10    11   ar
    19    10    22    1
    20    11    12   ar
    21    11    30    1
    22    12    13    1
    23    12    14   ar
    24    14    31    1
    25    15    16    2
    26    15    17    2
    27    15    18    1
    28    18    19    1
    29    18    20    1
    30    18    23    1
    31    21    24    1
    32    21    25    1
    33    21    32    1
