124
 OpenBabel02152110423D
Structure written by MMmdl.
 32 33  0  0  1  0  0  0  0  0999 V2000
   24.8310   -0.0580  -11.4927 C   0  0  0  0  0  0  0  0  0  0  0  0
   26.0235   -0.2330  -10.7891 C   0  0  0  0  0  0  0  0  0  0  0  0
   25.9987   -0.7743   -9.5096 C   0  0  0  0  0  0  0  0  0  0  0  0
   24.7856   -1.0874   -8.8994 C   0  0  0  0  0  0  0  0  0  0  0  0
   23.6010   -0.9335   -9.6065 C   0  0  0  0  0  0  0  0  0  0  0  0
   23.6090   -0.4396  -10.9170 C   0  0  0  0  0  0  0  0  0  0  0  0
   22.4819   -0.2891  -11.6902 O   0  0  0  0  0  0  0  0  0  0  0  0
   21.2436   -0.5778  -11.1838 C   0  0  0  0  0  0  0  0  0  0  0  0
   20.6717   -1.8245  -11.3930 C   0  0  0  0  0  0  0  0  0  0  0  0
   19.4142   -2.1154  -10.8705 C   0  0  0  0  0  0  0  0  0  0  0  0
   18.7356   -1.1376  -10.1307 C   0  0  0  0  0  0  0  0  0  0  0  0
   19.2836    0.1166   -9.9443 C   0  0  0  0  0  0  0  0  0  0  0  0
   18.4182    1.3429   -9.0771 Cl  0  0  0  0  0  0  0  0  0  0  0  0
   20.5528    0.3972  -10.4460 C   0  0  0  0  0  0  0  0  0  0  0  0
   27.5088   -1.0841   -8.6332 S   0  0  0  0  0  0  0  0  0  0  0  0
   27.2224   -2.0236   -7.5339 O   0  0  0  0  0  0  0  0  0  0  0  0
   28.5286   -1.4187   -9.6099 O   0  0  0  0  0  0  0  0  0  0  0  0
   27.9364    0.5884   -7.9114 C   0  0  0  0  0  0  0  0  0  0  0  0
   27.0434    0.9305   -6.9901 F   0  0  0  0  0  0  0  0  0  0  0  0
   29.1248    0.3945   -7.3800 F   0  0  0  0  0  0  0  0  0  0  0  0
   24.8632    0.5892  -12.8609 C   0  0  0  0  0  0  0  0  0  0  0  0
   18.8482   -3.3161  -11.0632 F   0  0  0  0  0  0  0  0  0  0  0  0
   28.0161    1.4963   -8.8897 F   0  0  0  0  0  0  0  0  0  0  0  0
   24.9720    1.8976  -12.6428 F   0  0  0  0  0  0  0  0  0  0  0  0
   25.8923    0.1745  -13.6008 F   0  0  0  0  0  0  0  0  0  0  0  0
   26.9738    0.0481  -11.2370 H   0  0  0  0  0  0  0  0  0  0  0  0
   24.7621   -1.4743   -7.8944 H   0  0  0  0  0  0  0  0  0  0  0  0
   22.6769   -1.2285   -9.1344 H   0  0  0  0  0  0  0  0  0  0  0  0
   21.2027   -2.5903  -11.9465 H   0  0  0  0  0  0  0  0  0  0  0  0
   17.7913   -1.4073   -9.6929 H   0  0  0  0  0  0  0  0  0  0  0  0
   20.9858    1.3555  -10.2466 H   0  0  0  0  0  0  0  0  0  0  0  0
   23.9655    0.4033  -13.4518 H   0  0  0  0  0  0  0  0  0  0  0  0
  1  2  2  0  0  0  0
  1  6  1  0  0  0  0
  1 21  1  0  0  0  0
  2  3  1  0  0  0  0
  2 26  1  0  0  0  0
  3  4  2  0  0  0  0
  3 15  1  0  0  0  0
  4  5  1  0  0  0  0
  4 27  1  0  0  0  0
  5  6  2  0  0  0  0
  5 28  1  0  0  0  0
  6  7  1  0  0  0  0
  7  8  1  0  0  0  0
  8  9  2  0  0  0  0
  8 14  1  0  0  0  0
  9 10  1  0  0  0  0
  9 29  1  0  0  0  0
 10 11  2  0  0  0  0
 10 22  1  0  0  0  0
 11 12  1  0  0  0  0
 11 30  1  0  0  0  0
 12 13  1  0  0  0  0
 12 14  2  0  0  0  0
 14 31  1  0  0  0  0
 15 16  2  0  0  0  0
 15 17  2  0  0  0  0
 15 18  1  0  0  0  0
 18 19  1  0  0  0  0
 18 20  1  0  0  0  0
 18 23  1  0  0  0  0
 21 24  1  0  0  0  0
 21 25  1  0  0  0  0
 21 32  1  0  0  0  0
M  END
>  <ID>
124

>  <IC50[uM](SPA)>
0.038

$$$$
