@<TRIPOS>MOLECULE
15
 38 40 0 0 0
SMALL
GASTEIGER
****
Structure written by MMmdl.
@<TRIPOS>ATOM
      1 O          27.5645    1.5617  -11.2470 O.3     1  LIG1       -0.3812
      2 C          27.1438    0.2894  -11.6866 C.3     1  LIG1        0.1455
      3 C          26.5069    0.3556  -13.0757 C.3     1  LIG1        0.2823
      4 C          25.0262    0.5977  -12.8413 C.3     1  LIG1        0.0428
      5 C          24.8031   -0.0727  -11.5007 C.ar    1  LIG1        0.0082
      6 C          26.0146   -0.2359  -10.8163 C.ar    1  LIG1        0.0184
      7 C          26.0213   -0.7692   -9.5151 C.ar    1  LIG1        0.1007
      8 C          24.8049   -1.0873   -8.9042 C.ar    1  LIG1       -0.0328
      9 C          23.6051   -0.9368   -9.5930 C.ar    1  LIG1       -0.0172
     10 C          23.6014   -0.4415  -10.9017 C.ar    1  LIG1        0.1322
     11 O          22.4836   -0.2868  -11.6891 O.3     1  LIG1       -0.4556
     12 C          21.2430   -0.5721  -11.1917 C.ar    1  LIG1        0.1324
     13 C          20.6758   -1.8287  -11.4014 C.ar    1  LIG1        0.0160
     14 C          19.4200   -2.1085  -10.8706 C.ar    1  LIG1        0.1281
     15 F          18.8549   -3.3186  -11.0589 F       1  LIG1       -0.2053
     16 C          18.7372   -1.1390  -10.1439 C.ar    1  LIG1       -0.0088
     17 C          19.2837    0.1313   -9.9594 C.ar    1  LIG1        0.0580
     18 C          18.5786    1.1709   -9.2254 C.1     1  LIG1        0.0994
     19 C          20.5524    0.3981  -10.4669 C.ar    1  LIG1       -0.0018
     20 S          27.5332   -1.0635   -8.5894 S.O2    1  LIG1        0.0583
     21 O          27.2225   -2.0202   -7.5218 O.2     1  LIG1       -0.1639
     22 O          28.5866   -1.4048   -9.5424 O.2     1  LIG1       -0.1639
     23 C          27.9649    0.6070   -7.8096 C.3     1  LIG1        0.3566
     24 F          27.9127    1.5706   -8.7312 F       1  LIG1       -0.1834
     25 F          27.1075    0.8491   -6.8159 F       1  LIG1       -0.1834
     26 F          27.0532    1.2940  -13.8508 F       1  LIG1       -0.2021
     27 F          26.6473   -0.8235  -13.6788 F       1  LIG1       -0.2021
     28 N          18.0226    1.9829   -8.6098 N.1     1  LIG1       -0.1909
     29 H          28.3466    1.8345  -11.7534 H       1  LIG1        0.2105
     30 H          27.9838   -0.4055  -11.7093 H       1  LIG1        0.0704
     31 H          24.4086    0.1833  -13.6391 H       1  LIG1        0.0373
     32 H          24.8053    1.6637  -12.7779 H       1  LIG1        0.0373
     33 H          24.7815   -1.4717   -7.8954 H       1  LIG1        0.0638
     34 H          22.6864   -1.2351   -9.1095 H       1  LIG1        0.0655
     35 H          21.2089   -2.5934  -11.9466 H       1  LIG1        0.0683
     36 H          17.7966   -1.4127   -9.7040 H       1  LIG1        0.0659
     37 H          21.0132    1.3531  -10.2641 H       1  LIG1        0.0667
     38 H          28.9783    0.5461   -7.4245 H       1  LIG1        0.1280
@<TRIPOS>BOND
     1     1     2    1
     2     1    29    1
     3     2     3    1
     4     2     6    1
     5     2    30    1
     6     3     4    1
     7     3    26    1
     8     3    27    1
     9     4     5    1
    10     4    31    1
    11     4    32    1
    12     5     6   ar
    13     5    10   ar
    14     6     7   ar
    15     7     8   ar
    16     7    20    1
    17     8     9   ar
    18     8    33    1
    19     9    10   ar
    20     9    34    1
    21    10    11    1
    22    11    12    1
    23    12    13   ar
    24    12    19   ar
    25    13    14   ar
    26    13    35    1
    27    14    15    1
    28    14    16   ar
    29    16    17   ar
    30    16    36    1
    31    17    18    1
    32    17    19   ar
    33    18    28    3
    34    19    37    1
    35    20    21    2
    36    20    22    2
    37    20    23    1
    38    23    24    1
    39    23    25    1
    40    23    38    1
