15
 OpenBabel02152110423D
Structure written by MMmdl.
 38 40  0  0  1  0  0  0  0  0999 V2000
   27.5645    1.5617  -11.2470 O   0  0  0  0  0  0  0  0  0  0  0  0
   27.1438    0.2894  -11.6866 C   0  0  2  0  0  0  0  0  0  0  0  0
   26.5069    0.3556  -13.0757 C   0  0  0  0  0  0  0  0  0  0  0  0
   25.0262    0.5977  -12.8413 C   0  0  0  0  0  0  0  0  0  0  0  0
   24.8031   -0.0727  -11.5007 C   0  0  0  0  0  0  0  0  0  0  0  0
   26.0146   -0.2359  -10.8163 C   0  0  0  0  0  0  0  0  0  0  0  0
   26.0213   -0.7692   -9.5151 C   0  0  0  0  0  0  0  0  0  0  0  0
   24.8049   -1.0873   -8.9042 C   0  0  0  0  0  0  0  0  0  0  0  0
   23.6051   -0.9368   -9.5930 C   0  0  0  0  0  0  0  0  0  0  0  0
   23.6014   -0.4415  -10.9017 C   0  0  0  0  0  0  0  0  0  0  0  0
   22.4836   -0.2868  -11.6891 O   0  0  0  0  0  0  0  0  0  0  0  0
   21.2430   -0.5721  -11.1917 C   0  0  0  0  0  0  0  0  0  0  0  0
   20.6758   -1.8287  -11.4014 C   0  0  0  0  0  0  0  0  0  0  0  0
   19.4200   -2.1085  -10.8706 C   0  0  0  0  0  0  0  0  0  0  0  0
   18.8549   -3.3186  -11.0589 F   0  0  0  0  0  0  0  0  0  0  0  0
   18.7372   -1.1390  -10.1439 C   0  0  0  0  0  0  0  0  0  0  0  0
   19.2837    0.1313   -9.9594 C   0  0  0  0  0  0  0  0  0  0  0  0
   18.5786    1.1709   -9.2254 C   0  0  0  0  0  0  0  0  0  0  0  0
   20.5524    0.3981  -10.4669 C   0  0  0  0  0  0  0  0  0  0  0  0
   27.5332   -1.0635   -8.5894 S   0  0  0  0  0  0  0  0  0  0  0  0
   27.2225   -2.0202   -7.5218 O   0  0  0  0  0  0  0  0  0  0  0  0
   28.5866   -1.4048   -9.5424 O   0  0  0  0  0  0  0  0  0  0  0  0
   27.9649    0.6070   -7.8096 C   0  0  0  0  0  0  0  0  0  0  0  0
   27.9127    1.5706   -8.7312 F   0  0  0  0  0  0  0  0  0  0  0  0
   27.1075    0.8491   -6.8159 F   0  0  0  0  0  0  0  0  0  0  0  0
   27.0532    1.2940  -13.8508 F   0  0  0  0  0  0  0  0  0  0  0  0
   26.6473   -0.8235  -13.6788 F   0  0  0  0  0  0  0  0  0  0  0  0
   18.0226    1.9829   -8.6098 N   0  0  0  0  0  0  0  0  0  0  0  0
   28.3466    1.8345  -11.7534 H   0  0  0  0  0  0  0  0  0  0  0  0
   27.9838   -0.4055  -11.7093 H   0  0  0  0  0  0  0  0  0  0  0  0
   24.4086    0.1833  -13.6391 H   0  0  0  0  0  0  0  0  0  0  0  0
   24.8053    1.6637  -12.7779 H   0  0  0  0  0  0  0  0  0  0  0  0
   24.7815   -1.4717   -7.8954 H   0  0  0  0  0  0  0  0  0  0  0  0
   22.6864   -1.2351   -9.1095 H   0  0  0  0  0  0  0  0  0  0  0  0
   21.2089   -2.5934  -11.9466 H   0  0  0  0  0  0  0  0  0  0  0  0
   17.7966   -1.4127   -9.7040 H   0  0  0  0  0  0  0  0  0  0  0  0
   21.0132    1.3531  -10.2641 H   0  0  0  0  0  0  0  0  0  0  0  0
   28.9783    0.5461   -7.4245 H   0  0  0  0  0  0  0  0  0  0  0  0
  1  2  1  0  0  0  0
  1 29  1  0  0  0  0
  2  3  1  0  0  0  0
  2  6  1  0  0  0  0
  2 30  1  1  0  0  0
  3  4  1  0  0  0  0
  3 26  1  0  0  0  0
  3 27  1  0  0  0  0
  4  5  1  0  0  0  0
  4 31  1  0  0  0  0
  4 32  1  0  0  0  0
  5  6  2  0  0  0  0
  5 10  1  0  0  0  0
  6  7  1  0  0  0  0
  7  8  2  0  0  0  0
  7 20  1  0  0  0  0
  8  9  1  0  0  0  0
  8 33  1  0  0  0  0
  9 10  2  0  0  0  0
  9 34  1  0  0  0  0
 10 11  1  0  0  0  0
 11 12  1  0  0  0  0
 12 13  2  0  0  0  0
 12 19  1  0  0  0  0
 13 14  1  0  0  0  0
 13 35  1  0  0  0  0
 14 15  1  0  0  0  0
 14 16  2  0  0  0  0
 16 17  1  0  0  0  0
 16 36  1  0  0  0  0
 17 18  1  0  0  0  0
 17 19  2  0  0  0  0
 18 28  3  0  0  0  0
 19 37  1  0  0  0  0
 20 21  2  0  0  0  0
 20 22  2  0  0  0  0
 20 23  1  0  0  0  0
 23 24  1  0  0  0  0
 23 25  1  0  0  0  0
 23 38  1  0  0  0  0
M  END
>  <ID>
15

>  <IC50[uM](SPA)>
0.008

$$$$
