@<TRIPOS>MOLECULE
163
 38 40 0 0 0
SMALL
GASTEIGER
****
Structure written by MMmdl.
@<TRIPOS>ATOM
      1 O          27.5787    1.5603  -11.1550 O.3     1  LIG1       -0.3812
      2 C          27.1514    0.3087  -11.6602 C.3     1  LIG1        0.1455
      3 C          26.5211    0.3751  -13.0576 C.3     1  LIG1        0.2823
      4 C          25.0338    0.5863  -12.8456 C.3     1  LIG1        0.0428
      5 C          24.8061   -0.0850  -11.5041 C.ar    1  LIG1        0.0082
      6 C          26.0164   -0.2498  -10.8166 C.ar    1  LIG1        0.0182
      7 C          26.0198   -0.7868   -9.5184 C.ar    1  LIG1        0.0942
      8 C          24.8022   -1.0984   -8.9082 C.ar    1  LIG1       -0.0330
      9 C          23.6047   -0.9287   -9.5876 C.ar    1  LIG1       -0.0172
     10 C          23.6011   -0.4346  -10.8994 C.ar    1  LIG1        0.1322
     11 O          22.4804   -0.2663  -11.6771 O.3     1  LIG1       -0.4556
     12 C          21.2449   -0.5687  -11.1803 C.ar    1  LIG1        0.1324
     13 C          20.6785   -1.8246  -11.3976 C.ar    1  LIG1        0.0160
     14 C          19.4221   -2.1093  -10.8761 C.ar    1  LIG1        0.1281
     15 F          18.8542   -3.3170  -11.0822 F       1  LIG1       -0.2053
     16 C          18.7363   -1.1524  -10.1388 C.ar    1  LIG1       -0.0088
     17 C          19.2883    0.1230   -9.9547 C.ar    1  LIG1        0.0580
     18 C          18.5697    1.1665   -9.2401 C.1     1  LIG1        0.0994
     19 C          20.5476    0.3902  -10.4511 C.ar    1  LIG1       -0.0018
     20 S          27.5198   -1.0658   -8.5788 S.O2    1  LIG1       -0.0055
     21 O          27.2106   -1.9783   -7.4776 O.2     1  LIG1       -0.1696
     22 O          28.5996   -1.4049   -9.5080 O.2     1  LIG1       -0.1696
     23 C          27.9060    0.6119   -7.8645 C.3     1  LIG1        0.0596
     24 F          27.0587    1.3217  -13.8292 F       1  LIG1       -0.2021
     25 F          26.6743   -0.8002  -13.6631 F       1  LIG1       -0.2021
     26 N          18.0197    2.0048   -8.6626 N.1     1  LIG1       -0.1909
     27 H          28.3401    1.8773  -11.6535 H       1  LIG1        0.2105
     28 H          27.9965   -0.3807  -11.7030 H       1  LIG1        0.0704
     29 H          24.4304    0.1815  -13.6650 H       1  LIG1        0.0373
     30 H          24.7949    1.6423  -12.7675 H       1  LIG1        0.0373
     31 H          24.7812   -1.4913   -7.9023 H       1  LIG1        0.0638
     32 H          22.6852   -1.2202   -9.0977 H       1  LIG1        0.0655
     33 H          21.2178   -2.5834  -11.9440 H       1  LIG1        0.0683
     34 H          17.7955   -1.4363   -9.7044 H       1  LIG1        0.0659
     35 H          21.0080    1.3516  -10.2626 H       1  LIG1        0.0667
     36 H          28.9206    0.5438   -7.4820 H       1  LIG1        0.0468
     37 H          27.1930    0.8396   -7.0713 H       1  LIG1        0.0468
     38 H          27.8723    1.3668   -8.6460 H       1  LIG1        0.0468
@<TRIPOS>BOND
     1     1     2    1
     2     1    27    1
     3     2     3    1
     4     2     6    1
     5     2    28    1
     6     3     4    1
     7     3    24    1
     8     3    25    1
     9     4     5    1
    10     4    29    1
    11     4    30    1
    12     5     6   ar
    13     5    10   ar
    14     6     7   ar
    15     7     8   ar
    16     7    20    1
    17     8     9   ar
    18     8    31    1
    19     9    10   ar
    20     9    32    1
    21    10    11    1
    22    11    12    1
    23    12    13   ar
    24    12    19   ar
    25    13    14   ar
    26    13    33    1
    27    14    15    1
    28    14    16   ar
    29    16    17   ar
    30    16    34    1
    31    17    18    1
    32    17    19   ar
    33    18    26    3
    34    19    35    1
    35    20    21    2
    36    20    22    2
    37    20    23    1
    38    23    36    1
    39    23    37    1
    40    23    38    1
