164
 OpenBabel02152110423D
Structure written by MMmdl.
 39 41  0  0  1  0  0  0  0  0999 V2000
   27.6126   -0.7221  -11.8575 N   0  0  0  0  0  0  0  0  0  0  0  0
   26.8627    0.4834  -11.6485 C   0  0  1  0  0  0  0  0  0  0  0  0
   26.1047    0.9544  -12.9037 C   0  0  0  0  0  0  0  0  0  0  0  0
   24.7399    0.3045  -12.8887 C   0  0  0  0  0  0  0  0  0  0  0  0
   24.5521    0.0154  -11.4229 C   0  0  0  0  0  0  0  0  0  0  0  0
   25.7582    0.0913  -10.7061 C   0  0  0  0  0  0  0  0  0  0  0  0
   25.8158   -0.3193   -9.3720 C   0  0  0  0  0  0  0  0  0  0  0  0
   24.6669   -0.8401   -8.7767 C   0  0  0  0  0  0  0  0  0  0  0  0
   23.4728   -0.8983   -9.5001 C   0  0  0  0  0  0  0  0  0  0  0  0
   23.4127   -0.4346  -10.8069 C   0  0  0  0  0  0  0  0  0  0  0  0
   22.3203   -0.4472  -11.6365 O   0  0  0  0  0  0  0  0  0  0  0  0
   21.0931   -0.6646  -11.1188 C   0  0  0  0  0  0  0  0  0  0  0  0
   20.5226   -1.9214  -11.2703 C   0  0  0  0  0  0  0  0  0  0  0  0
   19.2978   -2.1862  -10.6822 C   0  0  0  0  0  0  0  0  0  0  0  0
   18.7173   -3.3953  -10.8100 F   0  0  0  0  0  0  0  0  0  0  0  0
   18.6466   -1.1917   -9.9592 C   0  0  0  0  0  0  0  0  0  0  0  0
   19.1729    0.0954   -9.8802 C   0  0  0  0  0  0  0  0  0  0  0  0
   18.4511    1.1750   -9.2307 C   0  0  0  0  0  0  0  0  0  0  0  0
   20.4149    0.3549  -10.4427 C   0  0  0  0  0  0  0  0  0  0  0  0
   27.3832   -0.4357   -8.4930 S   0  0  0  0  0  0  0  0  0  0  0  0
   27.1650   -1.2520   -7.3169 O   0  0  0  0  0  0  0  0  0  0  0  0
   28.4060   -0.7807   -9.4815 O   0  0  0  0  0  0  0  0  0  0  0  0
   27.7560    1.2677   -7.8424 C   0  0  0  0  0  0  0  0  0  0  0  0
   25.9199    2.2501  -12.6967 F   0  0  0  0  0  0  0  0  0  0  0  0
   26.7393    0.7426  -14.0688 F   0  0  0  0  0  0  0  0  0  0  0  0
   17.8847    2.0403   -8.7170 N   0  0  0  0  0  0  0  0  0  0  0  0
   28.4254   -0.5246  -12.4360 H   0  0  0  0  0  0  0  0  0  0  0  0
   27.9605   -1.1018  -10.9738 H   0  0  0  0  0  0  0  0  0  0  0  0
   27.4864    1.2911  -11.3381 H   0  0  0  0  0  0  0  0  0  0  0  0
   24.7677   -0.6258  -13.4628 H   0  0  0  0  0  0  0  0  0  0  0  0
   23.9668    0.9440  -13.3228 H   0  0  0  0  0  0  0  0  0  0  0  0
   24.7064   -1.2424   -7.7690 H   0  0  0  0  0  0  0  0  0  0  0  0
   22.6069   -1.3623   -9.0644 H   0  0  0  0  0  0  0  0  0  0  0  0
   21.0440   -2.6868  -11.8270 H   0  0  0  0  0  0  0  0  0  0  0  0
   17.7233   -1.4644   -9.4868 H   0  0  0  0  0  0  0  0  0  0  0  0
   20.8568    1.3336  -10.3269 H   0  0  0  0  0  0  0  0  0  0  0  0
   28.7359    1.1864   -7.3802 H   0  0  0  0  0  0  0  0  0  0  0  0
   27.0414    1.4910   -7.0641 H   0  0  0  0  0  0  0  0  0  0  0  0
   27.7898    1.9666   -8.6384 H   0  0  0  0  0  0  0  0  0  0  0  0
  1  2  1  0  0  0  0
  1 27  1  0  0  0  0
  1 28  1  0  0  0  0
  2  3  1  0  0  0  0
  2  6  1  0  0  0  0
  2 29  1  1  0  0  0
  3  4  1  0  0  0  0
  3 24  1  0  0  0  0
  3 25  1  0  0  0  0
  4  5  1  0  0  0  0
  4 30  1  0  0  0  0
  4 31  1  0  0  0  0
  5  6  2  0  0  0  0
  5 10  1  0  0  0  0
  6  7  1  0  0  0  0
  7  8  2  0  0  0  0
  7 20  1  0  0  0  0
  8  9  1  0  0  0  0
  8 32  1  0  0  0  0
  9 10  2  0  0  0  0
  9 33  1  0  0  0  0
 10 11  1  0  0  0  0
 11 12  1  0  0  0  0
 12 13  2  0  0  0  0
 12 19  1  0  0  0  0
 13 14  1  0  0  0  0
 13 34  1  0  0  0  0
 14 15  1  0  0  0  0
 14 16  2  0  0  0  0
 16 17  1  0  0  0  0
 16 35  1  0  0  0  0
 17 18  1  0  0  0  0
 17 19  2  0  0  0  0
 18 26  3  0  0  0  0
 19 36  1  0  0  0  0
 20 21  2  0  0  0  0
 20 22  2  0  0  0  0
 20 23  1  0  0  0  0
 23 37  1  0  0  0  0
 23 38  1  0  0  0  0
 23 39  1  0  0  0  0
M  END
>  <ID>
164

>  <IC50[uM](SPA)>
11

$$$$
