165
 OpenBabel02152110423D
Structure written by MMmdl.
 39 41  0  0  1  0  0  0  0  0999 V2000
   27.5836    1.5568  -11.1222 N   0  0  0  0  0  0  0  0  0  0  0  0
   27.1600    0.2656  -11.6609 C   0  0  2  0  0  0  0  0  0  0  0  0
   26.5184    0.3567  -13.0592 C   0  0  0  0  0  0  0  0  0  0  0  0
   25.0297    0.5910  -12.8413 C   0  0  0  0  0  0  0  0  0  0  0  0
   24.8052   -0.0654  -11.5002 C   0  0  0  0  0  0  0  0  0  0  0  0
   26.0146   -0.2437  -10.8064 C   0  0  0  0  0  0  0  0  0  0  0  0
   26.0168   -0.7770   -9.5128 C   0  0  0  0  0  0  0  0  0  0  0  0
   24.7994   -1.0910   -8.8981 C   0  0  0  0  0  0  0  0  0  0  0  0
   23.6068   -0.9245   -9.5924 C   0  0  0  0  0  0  0  0  0  0  0  0
   23.5979   -0.4259  -10.8920 C   0  0  0  0  0  0  0  0  0  0  0  0
   22.4815   -0.2804  -11.6866 O   0  0  0  0  0  0  0  0  0  0  0  0
   21.2483   -0.5736  -11.1926 C   0  0  0  0  0  0  0  0  0  0  0  0
   20.6741   -1.8286  -11.3993 C   0  0  0  0  0  0  0  0  0  0  0  0
   19.4240   -2.1099  -10.8753 C   0  0  0  0  0  0  0  0  0  0  0  0
   18.8513   -3.3170  -11.0668 F   0  0  0  0  0  0  0  0  0  0  0  0
   18.7373   -1.1448  -10.1406 C   0  0  0  0  0  0  0  0  0  0  0  0
   19.2884    0.1262   -9.9662 C   0  0  0  0  0  0  0  0  0  0  0  0
   18.5751    1.1667   -9.2345 C   0  0  0  0  0  0  0  0  0  0  0  0
   20.5446    0.3954  -10.4628 C   0  0  0  0  0  0  0  0  0  0  0  0
   27.5234   -1.0682   -8.5880 S   0  0  0  0  0  0  0  0  0  0  0  0
   27.2169   -1.9994   -7.4943 O   0  0  0  0  0  0  0  0  0  0  0  0
   28.5933   -1.3900   -9.5234 O   0  0  0  0  0  0  0  0  0  0  0  0
   27.9099    0.6030   -7.8462 C   0  0  0  0  0  0  0  0  0  0  0  0
   27.0617    1.2852  -13.8476 F   0  0  0  0  0  0  0  0  0  0  0  0
   26.6509   -0.8260  -13.6655 F   0  0  0  0  0  0  0  0  0  0  0  0
   18.0232    1.9902   -8.6670 N   0  0  0  0  0  0  0  0  0  0  0  0
   28.1780    1.3732  -10.3208 H   0  0  0  0  0  0  0  0  0  0  0  0
   28.2339    1.9505  -11.7936 H   0  0  0  0  0  0  0  0  0  0  0  0
   27.9972   -0.4377  -11.7205 H   0  0  0  0  0  0  0  0  0  0  0  0
   24.4163    0.1879  -13.6481 H   0  0  0  0  0  0  0  0  0  0  0  0
   24.8098    1.6549  -12.7768 H   0  0  0  0  0  0  0  0  0  0  0  0
   24.7791   -1.4892   -7.9000 H   0  0  0  0  0  0  0  0  0  0  0  0
   22.6845   -1.2350   -9.1033 H   0  0  0  0  0  0  0  0  0  0  0  0
   21.2126   -2.5935  -11.9444 H   0  0  0  0  0  0  0  0  0  0  0  0
   17.8017   -1.4265   -9.7043 H   0  0  0  0  0  0  0  0  0  0  0  0
   21.0067    1.3483  -10.2588 H   0  0  0  0  0  0  0  0  0  0  0  0
   28.8501    0.4838   -7.3200 H   0  0  0  0  0  0  0  0  0  0  0  0
   27.1027    0.8984   -7.1794 H   0  0  0  0  0  0  0  0  0  0  0  0
   28.0467    1.3492   -8.6202 H   0  0  0  0  0  0  0  0  0  0  0  0
  1  2  1  0  0  0  0
  1 27  1  0  0  0  0
  1 28  1  0  0  0  0
  2  3  1  0  0  0  0
  2  6  1  0  0  0  0
  2 29  1  1  0  0  0
  3  4  1  0  0  0  0
  3 24  1  0  0  0  0
  3 25  1  0  0  0  0
  4  5  1  0  0  0  0
  4 30  1  0  0  0  0
  4 31  1  0  0  0  0
  5  6  2  0  0  0  0
  5 10  1  0  0  0  0
  6  7  1  0  0  0  0
  7  8  2  0  0  0  0
  7 20  1  0  0  0  0
  8  9  1  0  0  0  0
  8 32  1  0  0  0  0
  9 10  2  0  0  0  0
  9 33  1  0  0  0  0
 10 11  1  0  0  0  0
 11 12  1  0  0  0  0
 12 13  2  0  0  0  0
 12 19  1  0  0  0  0
 13 14  1  0  0  0  0
 13 34  1  0  0  0  0
 14 15  1  0  0  0  0
 14 16  2  0  0  0  0
 16 17  1  0  0  0  0
 16 35  1  0  0  0  0
 17 18  1  0  0  0  0
 17 19  2  0  0  0  0
 18 26  3  0  0  0  0
 19 36  1  0  0  0  0
 20 21  2  0  0  0  0
 20 22  2  0  0  0  0
 20 23  1  0  0  0  0
 23 37  1  0  0  0  0
 23 38  1  0  0  0  0
 23 39  1  0  0  0  0
M  END
>  <ID>
165

>  <IC50[uM](SPA)>
0.17

$$$$
