@<TRIPOS>MOLECULE
167
 38 40 0 0 0
SMALL
GASTEIGER
****
Structure written by MMmdl.
@<TRIPOS>ATOM
      1 O          27.6174    1.5478  -11.1379 O.3     1  LIG1       -0.3812
      2 C          27.1576    0.3016  -11.6549 C.3     1  LIG1        0.1455
      3 C          26.5229    0.3791  -13.0512 C.3     1  LIG1        0.2823
      4 C          25.0317    0.5852  -12.8454 C.3     1  LIG1        0.0428
      5 C          24.8099   -0.0815  -11.5012 C.ar    1  LIG1        0.0082
      6 C          26.0230   -0.2460  -10.8113 C.ar    1  LIG1        0.0183
      7 C          26.0229   -0.7786   -9.5060 C.ar    1  LIG1        0.0973
      8 C          24.8037   -1.0879   -8.9007 C.ar    1  LIG1       -0.0329
      9 C          23.6089   -0.9192   -9.5831 C.ar    1  LIG1       -0.0172
     10 C          23.6054   -0.4269  -10.8974 C.ar    1  LIG1        0.1322
     11 O          22.4927   -0.2591  -11.6812 O.3     1  LIG1       -0.4557
     12 C          21.2585   -0.5430  -11.1867 C.ar    1  LIG1        0.1311
     13 C          20.6891   -1.7973  -11.3987 C.ar    1  LIG1       -0.0009
     14 C          19.4288   -2.0656  -10.8661 C.ar    1  LIG1        0.0457
     15 C          18.7466   -1.1093  -10.1294 C.ar    1  LIG1       -0.0258
     16 C          19.3039    0.1671   -9.9553 C.ar    1  LIG1        0.0566
     17 C          18.5747    1.1946   -9.2462 C.1     1  LIG1        0.0993
     18 C          20.5607    0.4183  -10.4590 C.ar    1  LIG1       -0.0019
     19 S          27.5352   -1.0636   -8.5830 S.O2    1  LIG1        0.0259
     20 O          27.2233   -2.0141   -7.4936 O.2     1  LIG1       -0.1668
     21 O          28.5909   -1.3989   -9.5185 O.2     1  LIG1       -0.1668
     22 C          27.9412    0.6140   -7.8295 C.3     1  LIG1        0.2108
     23 F          27.1179    0.8438   -6.8093 F       1  LIG1       -0.2242
     24 N          18.0155    2.0188   -8.6719 N.1     1  LIG1       -0.1909
     25 CL         18.6828   -3.5869  -11.1124 Cl      1  LIG1       -0.0834
     26 F          27.0640    1.3150  -13.8239 F       1  LIG1       -0.2021
     27 F          26.6730   -0.7998  -13.6562 F       1  LIG1       -0.2021
     28 H          28.3618    1.8681  -11.6713 H       1  LIG1        0.2105
     29 H          27.9828   -0.4090  -11.7192 H       1  LIG1        0.0704
     30 H          24.4208    0.1923  -13.6623 H       1  LIG1        0.0373
     31 H          24.7995    1.6472  -12.7681 H       1  LIG1        0.0373
     32 H          24.7791   -1.4880   -7.8979 H       1  LIG1        0.0638
     33 H          22.6949   -1.2250   -9.0991 H       1  LIG1        0.0655
     34 H          21.2136   -2.5719  -11.9366 H       1  LIG1        0.0669
     35 H          17.8151   -1.3988   -9.6937 H       1  LIG1        0.0645
     36 H          21.0174    1.3729  -10.2677 H       1  LIG1        0.0667
     37 H          28.9709    0.5746   -7.4730 H       1  LIG1        0.0865
     38 H          27.8363    1.3925   -8.5883 H       1  LIG1        0.0865
@<TRIPOS>BOND
     1     1     2    1
     2     1    28    1
     3     2     3    1
     4     2     6    1
     5     2    29    1
     6     3     4    1
     7     3    26    1
     8     3    27    1
     9     4     5    1
    10     4    30    1
    11     4    31    1
    12     5     6   ar
    13     5    10   ar
    14     6     7   ar
    15     7     8   ar
    16     7    19    1
    17     8     9   ar
    18     8    32    1
    19     9    10   ar
    20     9    33    1
    21    10    11    1
    22    11    12    1
    23    12    13   ar
    24    12    18   ar
    25    13    14   ar
    26    13    34    1
    27    14    15   ar
    28    14    25    1
    29    15    16   ar
    30    15    35    1
    31    16    17    1
    32    16    18   ar
    33    17    24    3
    34    18    36    1
    35    19    20    2
    36    19    21    2
    37    19    22    1
    38    22    23    1
    39    22    37    1
    40    22    38    1
