@<TRIPOS>MOLECULE
206
 41 43 0 0 0
SMALL
GASTEIGER
****
Structure written by MMmdl.
@<TRIPOS>ATOM
      1 O          27.8905    0.7814  -11.2833 O.3     1  LIG1       -0.3812
      2 C          26.9193   -0.0282  -11.8984 C.3     1  LIG1        0.1455
      3 C          26.2553    0.6485  -13.1070 C.3     1  LIG1        0.2823
      4 C          24.7743    0.3619  -13.0634 C.3     1  LIG1        0.0428
      5 C          24.5513   -0.0833  -11.6435 C.ar    1  LIG1        0.0082
      6 C          25.7571   -0.3137  -10.9611 C.ar    1  LIG1        0.0182
      7 C          25.7304   -0.7838   -9.6350 C.ar    1  LIG1        0.0944
      8 C          24.4955   -0.9388   -8.9991 C.ar    1  LIG1       -0.0330
      9 C          23.3088   -0.7555   -9.6942 C.ar    1  LIG1       -0.0172
     10 C          23.3376   -0.3678  -11.0366 C.ar    1  LIG1        0.1322
     11 O          22.2312   -0.2289  -11.8473 O.3     1  LIG1       -0.4556
     12 C          21.0019   -0.5424  -11.3497 C.ar    1  LIG1        0.1324
     13 C          20.5026   -1.8363  -11.4599 C.ar    1  LIG1        0.0160
     14 C          19.3111   -2.1637  -10.8207 C.ar    1  LIG1        0.1281
     15 F          18.8034   -3.4051  -10.9256 F       1  LIG1       -0.2053
     16 C          18.6360   -1.2092  -10.0655 C.ar    1  LIG1       -0.0088
     17 C          19.1032    0.1048  -10.0073 C.ar    1  LIG1        0.0580
     18 C          18.4198    1.1400   -9.2611 C.1     1  LIG1        0.0994
     19 C          20.2891    0.4299  -10.6551 C.ar    1  LIG1       -0.0018
     20 S          27.1782   -1.3347   -8.7177 S.O2    1  LIG1       -0.0030
     21 O          26.7390   -2.4320   -7.8613 O.2     1  LIG1       -0.1694
     22 O          28.2843   -1.5524   -9.6512 O.2     1  LIG1       -0.1694
     23 C          27.6153    0.0506   -7.5323 C.3     1  LIG1        0.0681
     24 F          26.3933    1.9664  -13.0190 F       1  LIG1       -0.2021
     25 F          26.7651    0.2478  -14.2653 F       1  LIG1       -0.2021
     26 N          17.8859    1.9702   -8.6637 N.1     1  LIG1       -0.1909
     27 C          28.2838    1.1998   -8.2640 C.3     1  LIG1       -0.0453
     28 H          28.4344    1.2213  -11.9476 H       1  LIG1        0.2105
     29 H          27.3623   -0.9733  -12.2077 H       1  LIG1        0.0704
     30 H          24.5370   -0.4389  -13.7581 H       1  LIG1        0.0373
     31 H          24.1815    1.2313  -13.3494 H       1  LIG1        0.0373
     32 H          24.4471   -1.2650   -7.9726 H       1  LIG1        0.0638
     33 H          22.3722   -0.9488   -9.1964 H       1  LIG1        0.0655
     34 H          21.0600   -2.5906  -11.9949 H       1  LIG1        0.0683
     35 H          17.7638   -1.5211   -9.5283 H       1  LIG1        0.0659
     36 H          20.6808    1.4261  -10.5650 H       1  LIG1        0.0667
     37 H          26.6995    0.3531   -7.0244 H       1  LIG1        0.0501
     38 H          28.2860   -0.3848   -6.7955 H       1  LIG1        0.0501
     39 H          28.6278    1.9639   -7.5645 H       1  LIG1        0.0245
     40 H          27.5819    1.6805   -8.9401 H       1  LIG1        0.0245
     41 H          29.1450    0.8679   -8.8468 H       1  LIG1        0.0245
@<TRIPOS>BOND
     1     1     2    1
     2     1    28    1
     3     2     3    1
     4     2     6    1
     5     2    29    1
     6     3     4    1
     7     3    24    1
     8     3    25    1
     9     4     5    1
    10     4    30    1
    11     4    31    1
    12     5     6   ar
    13     5    10   ar
    14     6     7   ar
    15     7     8   ar
    16     7    20    1
    17     8     9   ar
    18     8    32    1
    19     9    10   ar
    20     9    33    1
    21    10    11    1
    22    11    12    1
    23    12    13   ar
    24    12    19   ar
    25    13    14   ar
    26    13    34    1
    27    14    15    1
    28    14    16   ar
    29    16    17   ar
    30    16    35    1
    31    17    18    1
    32    17    19   ar
    33    18    26    3
    34    19    36    1
    35    20    21    2
    36    20    22    2
    37    20    23    1
    38    23    27    1
    39    23    37    1
    40    23    38    1
    41    27    39    1
    42    27    40    1
    43    27    41    1
