@<TRIPOS>MOLECULE
215
 38 40 0 0 0
SMALL
GASTEIGER
****
Structure written by MMmdl.
@<TRIPOS>ATOM
      1 O          27.6091    1.5498  -11.1508 O.3     1  LIG1       -0.3812
      2 C          27.1523    0.3007  -11.6520 C.3     1  LIG1        0.1455
      3 C          26.5179    0.3762  -13.0497 C.3     1  LIG1        0.2823
      4 C          25.0307    0.5974  -12.8369 C.3     1  LIG1        0.0428
      5 C          24.8058   -0.0760  -11.4979 C.ar    1  LIG1        0.0082
      6 C          26.0140   -0.2422  -10.8075 C.ar    1  LIG1        0.0182
      7 C          26.0179   -0.7821   -9.5113 C.ar    1  LIG1        0.0958
      8 C          24.8010   -1.0892   -8.9002 C.ar    1  LIG1       -0.0330
      9 C          23.6017   -0.9289   -9.5882 C.ar    1  LIG1       -0.0172
     10 C          23.6015   -0.4265  -10.8963 C.ar    1  LIG1        0.1322
     11 O          22.4844   -0.2813  -11.6858 O.3     1  LIG1       -0.4556
     12 C          21.2443   -0.5742  -11.1910 C.ar    1  LIG1        0.1324
     13 C          20.6757   -1.8294  -11.4027 C.ar    1  LIG1        0.0160
     14 C          19.4222   -2.1115  -10.8707 C.ar    1  LIG1        0.1281
     15 F          18.8538   -3.3158  -11.0650 F       1  LIG1       -0.2053
     16 C          18.7401   -1.1454  -10.1430 C.ar    1  LIG1       -0.0088
     17 C          19.2855    0.1245   -9.9643 C.ar    1  LIG1        0.0580
     18 C          18.5738    1.1651   -9.2478 C.1     1  LIG1        0.0994
     19 C          20.5517    0.3924  -10.4677 C.ar    1  LIG1       -0.0018
     20 S          27.5336   -1.0789   -8.5968 S.O2    1  LIG1        0.0109
     21 O          27.2337   -2.0296   -7.5210 O.2     1  LIG1       -0.1682
     22 O          28.5907   -1.4009   -9.5499 O.2     1  LIG1       -0.1682
     23 C          27.9246    0.5996   -7.8590 C.3     1  LIG1        0.1447
     24 F          27.0644    1.3127  -13.8260 F       1  LIG1       -0.2021
     25 F          26.6596   -0.8019  -13.6597 F       1  LIG1       -0.2021
     26 N          18.0143    1.9955   -8.6715 N.1     1  LIG1       -0.1909
     27 CL         27.0855    0.7673   -6.3061 Cl      1  LIG1       -0.1004
     28 H          28.3441    1.8680  -11.7060 H       1  LIG1        0.2105
     29 H          27.9773   -0.4094  -11.7093 H       1  LIG1        0.0704
     30 H          24.4193    0.1887  -13.6438 H       1  LIG1        0.0373
     31 H          24.8032    1.6619  -12.7725 H       1  LIG1        0.0373
     32 H          24.7795   -1.4796   -7.8938 H       1  LIG1        0.0638
     33 H          22.6896   -1.2331   -9.1081 H       1  LIG1        0.0655
     34 H          21.2108   -2.5926  -11.9445 H       1  LIG1        0.0683
     35 H          17.8042   -1.4221   -9.7064 H       1  LIG1        0.0659
     36 H          21.0078    1.3477  -10.2751 H       1  LIG1        0.0667
     37 H          28.9969    0.6434   -7.6857 H       1  LIG1        0.0674
     38 H          27.6251    1.3933   -8.5421 H       1  LIG1        0.0674
@<TRIPOS>BOND
     1     1     2    1
     2     1    28    1
     3     2     3    1
     4     2     6    1
     5     2    29    1
     6     3     4    1
     7     3    24    1
     8     3    25    1
     9     4     5    1
    10     4    30    1
    11     4    31    1
    12     5     6   ar
    13     5    10   ar
    14     6     7   ar
    15     7     8   ar
    16     7    20    1
    17     8     9   ar
    18     8    32    1
    19     9    10   ar
    20     9    33    1
    21    10    11    1
    22    11    12    1
    23    12    13   ar
    24    12    19   ar
    25    13    14   ar
    26    13    34    1
    27    14    15    1
    28    14    16   ar
    29    16    17   ar
    30    16    35    1
    31    17    18    1
    32    17    19   ar
    33    18    26    3
    34    19    36    1
    35    20    21    2
    36    20    22    2
    37    20    23    1
    38    23    27    1
    39    23    37    1
    40    23    38    1
