215
 OpenBabel02152110423D
Structure written by MMmdl.
 38 40  0  0  1  0  0  0  0  0999 V2000
   27.6091    1.5498  -11.1508 O   0  0  0  0  0  0  0  0  0  0  0  0
   27.1523    0.3007  -11.6520 C   0  0  2  0  0  0  0  0  0  0  0  0
   26.5179    0.3762  -13.0497 C   0  0  0  0  0  0  0  0  0  0  0  0
   25.0307    0.5974  -12.8369 C   0  0  0  0  0  0  0  0  0  0  0  0
   24.8058   -0.0760  -11.4979 C   0  0  0  0  0  0  0  0  0  0  0  0
   26.0140   -0.2422  -10.8075 C   0  0  0  0  0  0  0  0  0  0  0  0
   26.0179   -0.7821   -9.5113 C   0  0  0  0  0  0  0  0  0  0  0  0
   24.8010   -1.0892   -8.9002 C   0  0  0  0  0  0  0  0  0  0  0  0
   23.6017   -0.9289   -9.5882 C   0  0  0  0  0  0  0  0  0  0  0  0
   23.6015   -0.4265  -10.8963 C   0  0  0  0  0  0  0  0  0  0  0  0
   22.4844   -0.2813  -11.6858 O   0  0  0  0  0  0  0  0  0  0  0  0
   21.2443   -0.5742  -11.1910 C   0  0  0  0  0  0  0  0  0  0  0  0
   20.6757   -1.8294  -11.4027 C   0  0  0  0  0  0  0  0  0  0  0  0
   19.4222   -2.1115  -10.8707 C   0  0  0  0  0  0  0  0  0  0  0  0
   18.8538   -3.3158  -11.0650 F   0  0  0  0  0  0  0  0  0  0  0  0
   18.7401   -1.1454  -10.1430 C   0  0  0  0  0  0  0  0  0  0  0  0
   19.2855    0.1245   -9.9643 C   0  0  0  0  0  0  0  0  0  0  0  0
   18.5738    1.1651   -9.2478 C   0  0  0  0  0  0  0  0  0  0  0  0
   20.5517    0.3924  -10.4677 C   0  0  0  0  0  0  0  0  0  0  0  0
   27.5336   -1.0789   -8.5968 S   0  0  0  0  0  0  0  0  0  0  0  0
   27.2337   -2.0296   -7.5210 O   0  0  0  0  0  0  0  0  0  0  0  0
   28.5907   -1.4009   -9.5499 O   0  0  0  0  0  0  0  0  0  0  0  0
   27.9246    0.5996   -7.8590 C   0  0  0  0  0  0  0  0  0  0  0  0
   27.0644    1.3127  -13.8260 F   0  0  0  0  0  0  0  0  0  0  0  0
   26.6596   -0.8019  -13.6597 F   0  0  0  0  0  0  0  0  0  0  0  0
   18.0143    1.9955   -8.6715 N   0  0  0  0  0  0  0  0  0  0  0  0
   27.0855    0.7673   -6.3061 Cl  0  0  0  0  0  0  0  0  0  0  0  0
   28.3441    1.8680  -11.7060 H   0  0  0  0  0  0  0  0  0  0  0  0
   27.9773   -0.4094  -11.7093 H   0  0  0  0  0  0  0  0  0  0  0  0
   24.4193    0.1887  -13.6438 H   0  0  0  0  0  0  0  0  0  0  0  0
   24.8032    1.6619  -12.7725 H   0  0  0  0  0  0  0  0  0  0  0  0
   24.7795   -1.4796   -7.8938 H   0  0  0  0  0  0  0  0  0  0  0  0
   22.6896   -1.2331   -9.1081 H   0  0  0  0  0  0  0  0  0  0  0  0
   21.2108   -2.5926  -11.9445 H   0  0  0  0  0  0  0  0  0  0  0  0
   17.8042   -1.4221   -9.7064 H   0  0  0  0  0  0  0  0  0  0  0  0
   21.0078    1.3477  -10.2751 H   0  0  0  0  0  0  0  0  0  0  0  0
   28.9969    0.6434   -7.6857 H   0  0  0  0  0  0  0  0  0  0  0  0
   27.6251    1.3933   -8.5421 H   0  0  0  0  0  0  0  0  0  0  0  0
  1  2  1  0  0  0  0
  1 28  1  0  0  0  0
  2  3  1  0  0  0  0
  2  6  1  0  0  0  0
  2 29  1  6  0  0  0
  3  4  1  0  0  0  0
  3 24  1  0  0  0  0
  3 25  1  0  0  0  0
  4  5  1  0  0  0  0
  4 30  1  0  0  0  0
  4 31  1  0  0  0  0
  5  6  2  0  0  0  0
  5 10  1  0  0  0  0
  6  7  1  0  0  0  0
  7  8  2  0  0  0  0
  7 20  1  0  0  0  0
  8  9  1  0  0  0  0
  8 32  1  0  0  0  0
  9 10  2  0  0  0  0
  9 33  1  0  0  0  0
 10 11  1  0  0  0  0
 11 12  1  0  0  0  0
 12 13  2  0  0  0  0
 12 19  1  0  0  0  0
 13 14  1  0  0  0  0
 13 34  1  0  0  0  0
 14 15  1  0  0  0  0
 14 16  2  0  0  0  0
 16 17  1  0  0  0  0
 16 35  1  0  0  0  0
 17 18  1  0  0  0  0
 17 19  2  0  0  0  0
 18 26  3  0  0  0  0
 19 36  1  0  0  0  0
 20 21  2  0  0  0  0
 20 22  2  0  0  0  0
 20 23  1  0  0  0  0
 23 27  1  0  0  0  0
 23 37  1  0  0  0  0
 23 38  1  0  0  0  0
M  END
>  <ID>
215

>  <IC50[uM](SPA)>
0.017

$$$$
