224
 OpenBabel02152110423D
Structure written by MMmdl.
 37 39  0  0  1  0  0  0  0  0999 V2000
   27.5892    1.5543  -11.2505 O   0  0  0  0  0  0  0  0  0  0  0  0
   27.1498    0.2833  -11.6710 C   0  0  2  0  0  0  0  0  0  0  0  0
   26.5108    0.3676  -13.0595 C   0  0  0  0  0  0  0  0  0  0  0  0
   25.0274    0.6124  -12.8307 C   0  0  0  0  0  0  0  0  0  0  0  0
   24.7998   -0.0567  -11.4929 C   0  0  0  0  0  0  0  0  0  0  0  0
   26.0087   -0.2305  -10.8088 C   0  0  0  0  0  0  0  0  0  0  0  0
   26.0111   -0.7788   -9.5159 C   0  0  0  0  0  0  0  0  0  0  0  0
   24.7936   -1.0867   -8.9039 C   0  0  0  0  0  0  0  0  0  0  0  0
   23.5969   -0.9365   -9.5976 C   0  0  0  0  0  0  0  0  0  0  0  0
   23.5942   -0.4360  -10.9066 C   0  0  0  0  0  0  0  0  0  0  0  0
   22.4686   -0.2925  -11.6835 O   0  0  0  0  0  0  0  0  0  0  0  0
   21.3282   -0.9881  -11.3963 C   0  0  0  0  0  0  0  0  0  0  0  0
   27.5230   -1.0757   -8.5998 S   0  0  0  0  0  0  0  0  0  0  0  0
   27.2255   -2.0253   -7.5211 O   0  0  0  0  0  0  0  0  0  0  0  0
   28.5744   -1.4184   -9.5570 O   0  0  0  0  0  0  0  0  0  0  0  0
   27.9214    0.6061   -7.8350 C   0  0  0  0  0  0  0  0  0  0  0  0
   26.6364   -0.8101  -13.6721 F   0  0  0  0  0  0  0  0  0  0  0  0
   27.0633    1.3020  -13.8343 F   0  0  0  0  0  0  0  0  0  0  0  0
   29.1867    0.5592   -7.4973 F   0  0  0  0  0  0  0  0  0  0  0  0
   27.7524    1.5709   -8.7021 F   0  0  0  0  0  0  0  0  0  0  0  0
   27.1266    0.7997   -6.7875 F   0  0  0  0  0  0  0  0  0  0  0  0
   21.0786   -2.3612  -11.5124 C   0  0  0  0  0  0  0  0  0  0  0  0
   19.8428   -2.6747  -11.1890 N   0  0  0  0  0  0  0  0  0  0  0  0
   19.2863   -1.5151  -10.8350 N   0  0  0  0  0  0  0  0  0  0  0  0
   20.1395   -0.4523  -10.9690 C   0  0  0  0  0  0  0  0  0  0  0  0
   17.9093   -1.4982  -10.3984 C   0  0  0  0  0  0  0  0  0  0  0  0
   28.3645    1.8361  -11.7694 H   0  0  0  0  0  0  0  0  0  0  0  0
   27.9763   -0.4257  -11.6958 H   0  0  0  0  0  0  0  0  0  0  0  0
   24.8087    1.6838  -12.7839 H   0  0  0  0  0  0  0  0  0  0  0  0
   24.4133    0.1809  -13.6152 H   0  0  0  0  0  0  0  0  0  0  0  0
   24.7772   -1.4629   -7.8914 H   0  0  0  0  0  0  0  0  0  0  0  0
   22.6752   -1.2335   -9.1264 H   0  0  0  0  0  0  0  0  0  0  0  0
   21.7723   -3.1162  -11.8587 H   0  0  0  0  0  0  0  0  0  0  0  0
   19.8418    0.5586  -10.7467 H   0  0  0  0  0  0  0  0  0  0  0  0
   17.2620   -1.8736  -11.1914 H   0  0  0  0  0  0  0  0  0  0  0  0
   17.6284   -0.4741  -10.1584 H   0  0  0  0  0  0  0  0  0  0  0  0
   17.7963   -2.1168   -9.5078 H   0  0  0  0  0  0  0  0  0  0  0  0
  1  2  1  0  0  0  0
  1 27  1  0  0  0  0
  2  3  1  0  0  0  0
  2  6  1  0  0  0  0
  2 28  1  6  0  0  0
  3  4  1  0  0  0  0
  3 17  1  0  0  0  0
  3 18  1  0  0  0  0
  4  5  1  0  0  0  0
  4 29  1  0  0  0  0
  4 30  1  0  0  0  0
  5  6  2  0  0  0  0
  5 10  1  0  0  0  0
  6  7  1  0  0  0  0
  7  8  2  0  0  0  0
  7 13  1  0  0  0  0
  8  9  1  0  0  0  0
  8 31  1  0  0  0  0
  9 10  2  0  0  0  0
  9 32  1  0  0  0  0
 10 11  1  0  0  0  0
 11 12  1  0  0  0  0
 12 22  1  0  0  0  0
 12 25  2  0  0  0  0
 13 14  2  0  0  0  0
 13 15  2  0  0  0  0
 13 16  1  0  0  0  0
 16 19  1  0  0  0  0
 16 20  1  0  0  0  0
 16 21  1  0  0  0  0
 22 23  2  0  0  0  0
 22 33  1  0  0  0  0
 23 24  1  0  0  0  0
 24 25  1  0  0  0  0
 24 26  1  0  0  0  0
 25 34  1  0  0  0  0
 26 35  1  0  0  0  0
 26 36  1  0  0  0  0
 26 37  1  0  0  0  0
M  END
>  <ID>
224

>  <IC50[uM](SPA)>
0.083

$$$$
