@<TRIPOS>MOLECULE
224
 37 39 0 0 0
SMALL
GASTEIGER
****
Structure written by MMmdl.
@<TRIPOS>ATOM
      1 O          27.5892    1.5543  -11.2505 O.3     1  LIG1       -0.3812
      2 C          27.1498    0.2833  -11.6710 C.3     1  LIG1        0.1455
      3 C          26.5108    0.3676  -13.0595 C.3     1  LIG1        0.2823
      4 C          25.0274    0.6124  -12.8307 C.3     1  LIG1        0.0428
      5 C          24.7998   -0.0567  -11.4929 C.ar    1  LIG1        0.0082
      6 C          26.0087   -0.2305  -10.8088 C.ar    1  LIG1        0.0185
      7 C          26.0111   -0.7788   -9.5159 C.ar    1  LIG1        0.1038
      8 C          24.7936   -1.0867   -8.9039 C.ar    1  LIG1       -0.0327
      9 C          23.5969   -0.9365   -9.5976 C.ar    1  LIG1       -0.0172
     10 C          23.5942   -0.4360  -10.9066 C.ar    1  LIG1        0.1324
     11 O          22.4686   -0.2925  -11.6835 O.3     1  LIG1       -0.4526
     12 C          21.3282   -0.9881  -11.3963 C.ar    1  LIG1        0.1657
     13 S          27.5230   -1.0757   -8.5998 S.O2    1  LIG1        0.0911
     14 O          27.2255   -2.0253   -7.5211 O.2     1  LIG1       -0.1612
     15 O          28.5744   -1.4184   -9.5570 O.2     1  LIG1       -0.1612
     16 C          27.9214    0.6061   -7.8350 C.3     1  LIG1        0.5261
     17 F          26.6364   -0.8101  -13.6721 F       1  LIG1       -0.2021
     18 F          27.0633    1.3020  -13.8343 F       1  LIG1       -0.2021
     19 F          29.1867    0.5592   -7.4973 F       1  LIG1       -0.1500
     20 F          27.7524    1.5709   -8.7021 F       1  LIG1       -0.1500
     21 F          27.1266    0.7997   -6.7875 F       1  LIG1       -0.1500
     22 C          21.0786   -2.3612  -11.5124 C.ar    1  LIG1        0.0916
     23 N          19.8428   -2.6747  -11.1890 N.ar    1  LIG1       -0.1761
     24 N          19.2863   -1.5151  -10.8350 N.ar    1  LIG1       -0.2709
     25 C          20.1395   -0.4523  -10.9690 C.ar    1  LIG1        0.0675
     26 C          17.9093   -1.4982  -10.3984 C.3     1  LIG1        0.0303
     27 H          28.3645    1.8361  -11.7694 H       1  LIG1        0.2105
     28 H          27.9763   -0.4257  -11.6958 H       1  LIG1        0.0704
     29 H          24.8087    1.6838  -12.7839 H       1  LIG1        0.0373
     30 H          24.4133    0.1809  -13.6152 H       1  LIG1        0.0373
     31 H          24.7772   -1.4629   -7.8914 H       1  LIG1        0.0638
     32 H          22.6752   -1.2335   -9.1264 H       1  LIG1        0.0655
     33 H          21.7723   -3.1162  -11.8587 H       1  LIG1        0.0886
     34 H          19.8418    0.5586  -10.7467 H       1  LIG1        0.0864
     35 H          17.2620   -1.8736  -11.1914 H       1  LIG1        0.0473
     36 H          17.6284   -0.4741  -10.1584 H       1  LIG1        0.0473
     37 H          17.7963   -2.1168   -9.5078 H       1  LIG1        0.0473
@<TRIPOS>BOND
     1     1     2    1
     2     1    27    1
     3     2     3    1
     4     2     6    1
     5     2    28    1
     6     3     4    1
     7     3    17    1
     8     3    18    1
     9     4     5    1
    10     4    29    1
    11     4    30    1
    12     5     6   ar
    13     5    10   ar
    14     6     7   ar
    15     7     8   ar
    16     7    13    1
    17     8     9   ar
    18     8    31    1
    19     9    10   ar
    20     9    32    1
    21    10    11    1
    22    11    12    1
    23    12    22   ar
    24    12    25   ar
    25    13    14    2
    26    13    15    2
    27    13    16    1
    28    16    19    1
    29    16    20    1
    30    16    21    1
    31    22    23   ar
    32    22    33    1
    33    23    24   ar
    34    24    25   ar
    35    24    26    1
    36    25    34    1
    37    26    35    1
    38    26    36    1
    39    26    37    1
