@<TRIPOS>MOLECULE
227
 38 40 0 0 0
SMALL
GASTEIGER
****
Structure written by MMmdl.
@<TRIPOS>ATOM
      1 O          27.8272    1.5641  -11.0613 O.3     1  LIG1       -0.3842
      2 C          27.1196    0.5197  -11.7089 C.3     1  LIG1        0.1135
      3 C          26.4410    0.9322  -13.0322 C.3     1  LIG1        0.1349
      4 C          25.0569    0.3132  -13.0465 C.3     1  LIG1        0.0102
      5 C          24.8031   -0.0378  -11.5948 C.ar    1  LIG1        0.0052
      6 C          25.9821   -0.0054  -10.8391 C.ar    1  LIG1        0.0155
      7 C          25.9756   -0.4108   -9.4860 C.ar    1  LIG1        0.1037
      8 C          24.7523   -0.7639   -8.9047 C.ar    1  LIG1       -0.0327
      9 C          23.5893   -0.8199   -9.6602 C.ar    1  LIG1       -0.0172
     10 C          23.6070   -0.4713  -11.0162 C.ar    1  LIG1        0.1321
     11 O          22.5129   -0.5291  -11.8499 O.3     1  LIG1       -0.4556
     12 C          21.2693   -0.7597  -11.3270 C.ar    1  LIG1        0.1324
     13 C          20.6685   -2.0051  -11.4862 C.ar    1  LIG1        0.0160
     14 C          19.4249   -2.2461  -10.9160 C.ar    1  LIG1        0.1281
     15 F          18.8269   -3.4424  -11.0720 F       1  LIG1       -0.2053
     16 C          18.7871   -1.2517  -10.1791 C.ar    1  LIG1       -0.0088
     17 C          19.3542    0.0199  -10.0730 C.ar    1  LIG1        0.0580
     18 C          18.6860    1.1030   -9.3771 C.1     1  LIG1        0.0994
     19 C          20.6055    0.2435  -10.6245 C.ar    1  LIG1       -0.0018
     20 S          27.4540   -0.4504   -8.4410 S.O2    1  LIG1        0.0911
     21 O          27.2130   -1.3677   -7.3228 O.2     1  LIG1       -0.1612
     22 O          28.5784   -0.6917   -9.3508 O.2     1  LIG1       -0.1612
     23 C          27.6740    1.2644   -7.6619 C.3     1  LIG1        0.5261
     24 F          26.2395    2.2465  -13.0641 F       1  LIG1       -0.2421
     25 N          18.1663    1.9675   -8.8128 N.1     1  LIG1       -0.1909
     26 F          27.2225    1.2103   -6.4199 F       1  LIG1       -0.1500
     27 F          28.9768    1.5534   -7.6702 F       1  LIG1       -0.1500
     28 F          27.0318    2.1940   -8.3234 F       1  LIG1       -0.1500
     29 H          28.5149    1.9300  -11.6463 H       1  LIG1        0.2104
     30 H          27.8025   -0.3009  -11.9316 H       1  LIG1        0.0673
     31 H          27.0306    0.7186  -13.9241 H       1  LIG1        0.0684
     32 H          25.0758   -0.5870  -13.6585 H       1  LIG1        0.0343
     33 H          24.3018    0.9764  -13.4758 H       1  LIG1        0.0343
     34 H          24.6649   -1.0110   -7.8636 H       1  LIG1        0.0638
     35 H          22.6896   -1.1518   -9.1671 H       1  LIG1        0.0655
     36 H          21.1858   -2.7906  -12.0103 H       1  LIG1        0.0683
     37 H          17.8819   -1.5039   -9.6760 H       1  LIG1        0.0659
     38 H          21.0827    1.1859  -10.4602 H       1  LIG1        0.0667
@<TRIPOS>BOND
     1     1     2    1
     2     1    29    1
     3     2     3    1
     4     2     6    1
     5     2    30    1
     6     3     4    1
     7     3    24    1
     8     3    31    1
     9     4     5    1
    10     4    32    1
    11     4    33    1
    12     5     6   ar
    13     5    10   ar
    14     6     7   ar
    15     7     8   ar
    16     7    20    1
    17     8     9   ar
    18     8    34    1
    19     9    10   ar
    20     9    35    1
    21    10    11    1
    22    11    12    1
    23    12    13   ar
    24    12    19   ar
    25    13    14   ar
    26    13    36    1
    27    14    15    1
    28    14    16   ar
    29    16    17   ar
    30    16    37    1
    31    17    18    1
    32    17    19   ar
    33    18    25    3
    34    19    38    1
    35    20    21    2
    36    20    22    2
    37    20    23    1
    38    23    26    1
    39    23    27    1
    40    23    28    1
