227
 OpenBabel02152110423D
Structure written by MMmdl.
 38 40  0  0  1  0  0  0  0  0999 V2000
   27.8272    1.5641  -11.0613 O   0  0  0  0  0  0  0  0  0  0  0  0
   27.1196    0.5197  -11.7089 C   0  0  2  0  0  0  0  0  0  0  0  0
   26.4410    0.9322  -13.0322 C   0  0  1  0  0  0  0  0  0  0  0  0
   25.0569    0.3132  -13.0465 C   0  0  0  0  0  0  0  0  0  0  0  0
   24.8031   -0.0378  -11.5948 C   0  0  0  0  0  0  0  0  0  0  0  0
   25.9821   -0.0054  -10.8391 C   0  0  0  0  0  0  0  0  0  0  0  0
   25.9756   -0.4108   -9.4860 C   0  0  0  0  0  0  0  0  0  0  0  0
   24.7523   -0.7639   -8.9047 C   0  0  0  0  0  0  0  0  0  0  0  0
   23.5893   -0.8199   -9.6602 C   0  0  0  0  0  0  0  0  0  0  0  0
   23.6070   -0.4713  -11.0162 C   0  0  0  0  0  0  0  0  0  0  0  0
   22.5129   -0.5291  -11.8499 O   0  0  0  0  0  0  0  0  0  0  0  0
   21.2693   -0.7597  -11.3270 C   0  0  0  0  0  0  0  0  0  0  0  0
   20.6685   -2.0051  -11.4862 C   0  0  0  0  0  0  0  0  0  0  0  0
   19.4249   -2.2461  -10.9160 C   0  0  0  0  0  0  0  0  0  0  0  0
   18.8269   -3.4424  -11.0720 F   0  0  0  0  0  0  0  0  0  0  0  0
   18.7871   -1.2517  -10.1791 C   0  0  0  0  0  0  0  0  0  0  0  0
   19.3542    0.0199  -10.0730 C   0  0  0  0  0  0  0  0  0  0  0  0
   18.6860    1.1030   -9.3771 C   0  0  0  0  0  0  0  0  0  0  0  0
   20.6055    0.2435  -10.6245 C   0  0  0  0  0  0  0  0  0  0  0  0
   27.4540   -0.4504   -8.4410 S   0  0  0  0  0  0  0  0  0  0  0  0
   27.2130   -1.3677   -7.3228 O   0  0  0  0  0  0  0  0  0  0  0  0
   28.5784   -0.6917   -9.3508 O   0  0  0  0  0  0  0  0  0  0  0  0
   27.6740    1.2644   -7.6619 C   0  0  0  0  0  0  0  0  0  0  0  0
   26.2395    2.2465  -13.0641 F   0  0  0  0  0  0  0  0  0  0  0  0
   18.1663    1.9675   -8.8128 N   0  0  0  0  0  0  0  0  0  0  0  0
   27.2225    1.2103   -6.4199 F   0  0  0  0  0  0  0  0  0  0  0  0
   28.9768    1.5534   -7.6702 F   0  0  0  0  0  0  0  0  0  0  0  0
   27.0318    2.1940   -8.3234 F   0  0  0  0  0  0  0  0  0  0  0  0
   28.5149    1.9300  -11.6463 H   0  0  0  0  0  0  0  0  0  0  0  0
   27.8025   -0.3009  -11.9316 H   0  0  0  0  0  0  0  0  0  0  0  0
   27.0306    0.7186  -13.9241 H   0  0  0  0  0  0  0  0  0  0  0  0
   25.0758   -0.5870  -13.6585 H   0  0  0  0  0  0  0  0  0  0  0  0
   24.3018    0.9764  -13.4758 H   0  0  0  0  0  0  0  0  0  0  0  0
   24.6649   -1.0110   -7.8636 H   0  0  0  0  0  0  0  0  0  0  0  0
   22.6896   -1.1518   -9.1671 H   0  0  0  0  0  0  0  0  0  0  0  0
   21.1858   -2.7906  -12.0103 H   0  0  0  0  0  0  0  0  0  0  0  0
   17.8819   -1.5039   -9.6760 H   0  0  0  0  0  0  0  0  0  0  0  0
   21.0827    1.1859  -10.4602 H   0  0  0  0  0  0  0  0  0  0  0  0
  1  2  1  0  0  0  0
  1 29  1  0  0  0  0
  2  3  1  0  0  0  0
  2  6  1  0  0  0  0
  2 30  1  6  0  0  0
  3  4  1  0  0  0  0
  3 24  1  0  0  0  0
  3 31  1  6  0  0  0
  4  5  1  0  0  0  0
  4 32  1  0  0  0  0
  4 33  1  0  0  0  0
  5  6  2  0  0  0  0
  5 10  1  0  0  0  0
  6  7  1  0  0  0  0
  7  8  2  0  0  0  0
  7 20  1  0  0  0  0
  8  9  1  0  0  0  0
  8 34  1  0  0  0  0
  9 10  2  0  0  0  0
  9 35  1  0  0  0  0
 10 11  1  0  0  0  0
 11 12  1  0  0  0  0
 12 13  2  0  0  0  0
 12 19  1  0  0  0  0
 13 14  1  0  0  0  0
 13 36  1  0  0  0  0
 14 15  1  0  0  0  0
 14 16  2  0  0  0  0
 16 17  1  0  0  0  0
 16 37  1  0  0  0  0
 17 18  1  0  0  0  0
 17 19  2  0  0  0  0
 18 25  3  0  0  0  0
 19 38  1  0  0  0  0
 20 21  2  0  0  0  0
 20 22  2  0  0  0  0
 20 23  1  0  0  0  0
 23 26  1  0  0  0  0
 23 27  1  0  0  0  0
 23 28  1  0  0  0  0
M  END
>  <ID>
227

>  <IC50[uM](SPA)>
0.013

$$$$
