231
 OpenBabel02152110423D
Structure written by MMmdl.
 38 40  0  0  1  0  0  0  0  0999 V2000
   27.8943    1.1788  -11.0631 O   0  0  0  0  0  0  0  0  0  0  0  0
   27.1609    0.1641  -11.7029 C   0  0  2  0  0  0  0  0  0  0  0  0
   26.4962    0.6274  -13.0105 C   0  0  1  0  0  0  0  0  0  0  0  0
   25.0720    0.1050  -12.9974 C   0  0  0  0  0  0  0  0  0  0  0  0
   24.8103   -0.1873  -11.5381 C   0  0  0  0  0  0  0  0  0  0  0  0
   26.0092   -0.2725  -10.8246 C   0  0  0  0  0  0  0  0  0  0  0  0
   26.0063   -0.6974   -9.4871 C   0  0  0  0  0  0  0  0  0  0  0  0
   24.7861   -0.9464   -8.8596 C   0  0  0  0  0  0  0  0  0  0  0  0
   23.5916   -0.8530   -9.5671 C   0  0  0  0  0  0  0  0  0  0  0  0
   23.6031   -0.5017  -10.9219 C   0  0  0  0  0  0  0  0  0  0  0  0
   22.4930   -0.4333  -11.7294 O   0  0  0  0  0  0  0  0  0  0  0  0
   21.2454   -0.6638  -11.2213 C   0  0  0  0  0  0  0  0  0  0  0  0
   20.6244   -1.8866  -11.4633 C   0  0  0  0  0  0  0  0  0  0  0  0
   19.3585   -2.1311  -10.9427 C   0  0  0  0  0  0  0  0  0  0  0  0
   18.7399   -3.3039  -11.1763 F   0  0  0  0  0  0  0  0  0  0  0  0
   18.7159   -1.1569  -10.1866 C   0  0  0  0  0  0  0  0  0  0  0  0
   19.3156    0.0868   -9.9795 C   0  0  0  0  0  0  0  0  0  0  0  0
   18.6351    1.1380   -9.2464 C   0  0  0  0  0  0  0  0  0  0  0  0
   20.5951    0.3214  -10.4759 C   0  0  0  0  0  0  0  0  0  0  0  0
   27.5155   -0.9389   -8.5422 S   0  0  0  0  0  0  0  0  0  0  0  0
   27.2187   -1.8839   -7.4633 O   0  0  0  0  0  0  0  0  0  0  0  0
   28.6096   -1.2396   -9.4636 O   0  0  0  0  0  0  0  0  0  0  0  0
   27.8361    0.7467   -7.7905 C   0  0  0  0  0  0  0  0  0  0  0  0
   26.3889    1.9565  -13.0245 F   0  0  0  0  0  0  0  0  0  0  0  0
   18.0971    1.9749   -8.6636 N   0  0  0  0  0  0  0  0  0  0  0  0
   28.5017    1.6054  -11.6875 H   0  0  0  0  0  0  0  0  0  0  0  0
   27.8028   -0.6923  -11.9073 H   0  0  0  0  0  0  0  0  0  0  0  0
   27.0542    0.3687  -13.9106 H   0  0  0  0  0  0  0  0  0  0  0  0
   25.0170   -0.8251  -13.5618 H   0  0  0  0  0  0  0  0  0  0  0  0
   24.3529    0.7937  -13.4436 H   0  0  0  0  0  0  0  0  0  0  0  0
   24.7564   -1.2393   -7.8226 H   0  0  0  0  0  0  0  0  0  0  0  0
   22.6707   -1.0996   -9.0644 H   0  0  0  0  0  0  0  0  0  0  0  0
   21.1293   -2.6489  -12.0348 H   0  0  0  0  0  0  0  0  0  0  0  0
   17.7656   -1.4057   -9.7616 H   0  0  0  0  0  0  0  0  0  0  0  0
   21.0858    1.2560  -10.2638 H   0  0  0  0  0  0  0  0  0  0  0  0
   28.8700    0.7613   -7.4646 H   0  0  0  0  0  0  0  0  0  0  0  0
   27.1544    0.8944   -6.9586 H   0  0  0  0  0  0  0  0  0  0  0  0
   27.6817    1.5165   -8.5435 H   0  0  0  0  0  0  0  0  0  0  0  0
  1  2  1  0  0  0  0
  1 26  1  0  0  0  0
  2  3  1  0  0  0  0
  2  6  1  0  0  0  0
  2 27  1  6  0  0  0
  3  4  1  0  0  0  0
  3 24  1  0  0  0  0
  3 28  1  6  0  0  0
  4  5  1  0  0  0  0
  4 29  1  0  0  0  0
  4 30  1  0  0  0  0
  5  6  2  0  0  0  0
  5 10  1  0  0  0  0
  6  7  1  0  0  0  0
  7  8  2  0  0  0  0
  7 20  1  0  0  0  0
  8  9  1  0  0  0  0
  8 31  1  0  0  0  0
  9 10  2  0  0  0  0
  9 32  1  0  0  0  0
 10 11  1  0  0  0  0
 11 12  1  0  0  0  0
 12 13  2  0  0  0  0
 12 19  1  0  0  0  0
 13 14  1  0  0  0  0
 13 33  1  0  0  0  0
 14 15  1  0  0  0  0
 14 16  2  0  0  0  0
 16 17  1  0  0  0  0
 16 34  1  0  0  0  0
 17 18  1  0  0  0  0
 17 19  2  0  0  0  0
 18 25  3  0  0  0  0
 19 35  1  0  0  0  0
 20 21  2  0  0  0  0
 20 22  2  0  0  0  0
 20 23  1  0  0  0  0
 23 36  1  0  0  0  0
 23 37  1  0  0  0  0
 23 38  1  0  0  0  0
M  END
>  <ID>
231

>  <IC50[uM](SPA)>
0.045

$$$$
