@<TRIPOS>MOLECULE
231
 38 40 0 0 0
SMALL
GASTEIGER
****
Structure written by MMmdl.
@<TRIPOS>ATOM
      1 O          27.8943    1.1788  -11.0631 O.3     1  LIG1       -0.3842
      2 C          27.1609    0.1641  -11.7029 C.3     1  LIG1        0.1135
      3 C          26.4962    0.6274  -13.0105 C.3     1  LIG1        0.1349
      4 C          25.0720    0.1050  -12.9974 C.3     1  LIG1        0.0102
      5 C          24.8103   -0.1873  -11.5381 C.ar    1  LIG1        0.0052
      6 C          26.0092   -0.2725  -10.8246 C.ar    1  LIG1        0.0151
      7 C          26.0063   -0.6974   -9.4871 C.ar    1  LIG1        0.0941
      8 C          24.7861   -0.9464   -8.8596 C.ar    1  LIG1       -0.0330
      9 C          23.5916   -0.8530   -9.5671 C.ar    1  LIG1       -0.0172
     10 C          23.6031   -0.5017  -10.9219 C.ar    1  LIG1        0.1321
     11 O          22.4930   -0.4333  -11.7294 O.3     1  LIG1       -0.4556
     12 C          21.2454   -0.6638  -11.2213 C.ar    1  LIG1        0.1324
     13 C          20.6244   -1.8866  -11.4633 C.ar    1  LIG1        0.0160
     14 C          19.3585   -2.1311  -10.9427 C.ar    1  LIG1        0.1281
     15 F          18.7399   -3.3039  -11.1763 F       1  LIG1       -0.2053
     16 C          18.7159   -1.1569  -10.1866 C.ar    1  LIG1       -0.0088
     17 C          19.3156    0.0868   -9.9795 C.ar    1  LIG1        0.0580
     18 C          18.6351    1.1380   -9.2464 C.1     1  LIG1        0.0994
     19 C          20.5951    0.3214  -10.4759 C.ar    1  LIG1       -0.0018
     20 S          27.5155   -0.9389   -8.5422 S.O2    1  LIG1       -0.0055
     21 O          27.2187   -1.8839   -7.4633 O.2     1  LIG1       -0.1696
     22 O          28.6096   -1.2396   -9.4636 O.2     1  LIG1       -0.1696
     23 C          27.8361    0.7467   -7.7905 C.3     1  LIG1        0.0596
     24 F          26.3889    1.9565  -13.0245 F       1  LIG1       -0.2421
     25 N          18.0971    1.9749   -8.6636 N.1     1  LIG1       -0.1909
     26 H          28.5017    1.6054  -11.6875 H       1  LIG1        0.2104
     27 H          27.8028   -0.6923  -11.9073 H       1  LIG1        0.0673
     28 H          27.0542    0.3687  -13.9106 H       1  LIG1        0.0684
     29 H          25.0170   -0.8251  -13.5618 H       1  LIG1        0.0343
     30 H          24.3529    0.7937  -13.4436 H       1  LIG1        0.0343
     31 H          24.7564   -1.2393   -7.8226 H       1  LIG1        0.0638
     32 H          22.6707   -1.0996   -9.0644 H       1  LIG1        0.0655
     33 H          21.1293   -2.6489  -12.0348 H       1  LIG1        0.0683
     34 H          17.7656   -1.4057   -9.7616 H       1  LIG1        0.0659
     35 H          21.0858    1.2560  -10.2638 H       1  LIG1        0.0667
     36 H          28.8700    0.7613   -7.4646 H       1  LIG1        0.0468
     37 H          27.1544    0.8944   -6.9586 H       1  LIG1        0.0468
     38 H          27.6817    1.5165   -8.5435 H       1  LIG1        0.0468
@<TRIPOS>BOND
     1     1     2    1
     2     1    26    1
     3     2     3    1
     4     2     6    1
     5     2    27    1
     6     3     4    1
     7     3    24    1
     8     3    28    1
     9     4     5    1
    10     4    29    1
    11     4    30    1
    12     5     6   ar
    13     5    10   ar
    14     6     7   ar
    15     7     8   ar
    16     7    20    1
    17     8     9   ar
    18     8    31    1
    19     9    10   ar
    20     9    32    1
    21    10    11    1
    22    11    12    1
    23    12    13   ar
    24    12    19   ar
    25    13    14   ar
    26    13    33    1
    27    14    15    1
    28    14    16   ar
    29    16    17   ar
    30    16    34    1
    31    17    18    1
    32    17    19   ar
    33    18    25    3
    34    19    35    1
    35    20    21    2
    36    20    22    2
    37    20    23    1
    38    23    36    1
    39    23    37    1
    40    23    38    1
