@<TRIPOS>MOLECULE
234
 38 40 0 0 0
SMALL
GASTEIGER
****
Structure written by MMmdl.
@<TRIPOS>ATOM
      1 O          27.5728    1.5601  -11.1459 O.3     1  LIG1       -0.3812
      2 C          27.1536    0.3088  -11.6552 C.3     1  LIG1        0.1455
      3 C          26.5252    0.3787  -13.0559 C.3     1  LIG1        0.2823
      4 C          25.0351    0.5810  -12.8466 C.3     1  LIG1        0.0428
      5 C          24.8123   -0.0916  -11.5082 C.ar    1  LIG1        0.0082
      6 C          26.0213   -0.2538  -10.8166 C.ar    1  LIG1        0.0182
      7 C          26.0217   -0.7899   -9.5190 C.ar    1  LIG1        0.0942
      8 C          24.8061   -1.1035   -8.9088 C.ar    1  LIG1       -0.0330
      9 C          23.6060   -0.9317   -9.5917 C.ar    1  LIG1       -0.0172
     10 C          23.6085   -0.4312  -10.8990 C.ar    1  LIG1        0.1322
     11 O          22.4887   -0.2465  -11.6759 O.3     1  LIG1       -0.4557
     12 C          21.2536   -0.5375  -11.1765 C.ar    1  LIG1        0.1311
     13 C          20.6850   -1.7900  -11.3895 C.ar    1  LIG1       -0.0009
     14 C          19.4306   -2.0624  -10.8562 C.ar    1  LIG1        0.0457
     15 CL         18.6842   -3.5700  -11.0979 Cl      1  LIG1       -0.0834
     16 C          18.7499   -1.1042  -10.1192 C.ar    1  LIG1       -0.0258
     17 C          19.2995    0.1632   -9.9426 C.ar    1  LIG1        0.0566
     18 C          18.5790    1.1976   -9.2292 C.1     1  LIG1        0.0993
     19 C          20.5645    0.4307  -10.4478 C.ar    1  LIG1       -0.0019
     20 S          27.5212   -1.0658   -8.5765 S.O2    1  LIG1       -0.0055
     21 O          27.2091   -1.9751   -7.4734 O.2     1  LIG1       -0.1696
     22 O          28.6014   -1.4067   -9.5003 O.2     1  LIG1       -0.1696
     23 C          27.9046    0.6147   -7.8636 C.3     1  LIG1        0.0596
     24 F          27.0583    1.3232  -13.8300 F       1  LIG1       -0.2021
     25 F          26.6754   -0.7993  -13.6647 F       1  LIG1       -0.2021
     26 N          18.0104    2.0266   -8.6666 N.1     1  LIG1       -0.1909
     27 H          28.3370    1.8866  -11.6617 H       1  LIG1        0.2105
     28 H          28.0013   -0.3730  -11.7036 H       1  LIG1        0.0704
     29 H          24.4365    0.1828  -13.6670 H       1  LIG1        0.0373
     30 H          24.7950    1.6418  -12.7665 H       1  LIG1        0.0373
     31 H          24.7820   -1.4948   -7.9039 H       1  LIG1        0.0638
     32 H          22.6892   -1.2153   -9.0980 H       1  LIG1        0.0655
     33 H          21.2216   -2.5514  -11.9357 H       1  LIG1        0.0669
     34 H          17.8153   -1.3857   -9.6829 H       1  LIG1        0.0645
     35 H          21.0238    1.3833  -10.2559 H       1  LIG1        0.0667
     36 H          28.8492    0.5007   -7.3454 H       1  LIG1        0.0468
     37 H          27.1052    0.9088   -7.1861 H       1  LIG1        0.0468
     38 H          28.0235    1.3382   -8.6638 H       1  LIG1        0.0468
@<TRIPOS>BOND
     1     1     2    1
     2     1    27    1
     3     2     3    1
     4     2     6    1
     5     2    28    1
     6     3     4    1
     7     3    24    1
     8     3    25    1
     9     4     5    1
    10     4    29    1
    11     4    30    1
    12     5     6   ar
    13     5    10   ar
    14     6     7   ar
    15     7     8   ar
    16     7    20    1
    17     8     9   ar
    18     8    31    1
    19     9    10   ar
    20     9    32    1
    21    10    11    1
    22    11    12    1
    23    12    13   ar
    24    12    19   ar
    25    13    14   ar
    26    13    33    1
    27    14    15    1
    28    14    16   ar
    29    16    17   ar
    30    16    34    1
    31    17    18    1
    32    17    19   ar
    33    18    26    3
    34    19    35    1
    35    20    21    2
    36    20    22    2
    37    20    23    1
    38    23    36    1
    39    23    37    1
    40    23    38    1
