@<TRIPOS>MOLECULE
235
 37 39 0 0 0
SMALL
GASTEIGER
****
Structure written by MMmdl.
@<TRIPOS>ATOM
      1 O          27.5822    1.5627  -11.2551 O.3     1  LIG1       -0.3812
      2 C          27.1468    0.2863  -11.6761 C.3     1  LIG1        0.1455
      3 C          26.5086    0.3643  -13.0642 C.3     1  LIG1        0.2823
      4 C          25.0265    0.6075  -12.8332 C.3     1  LIG1        0.0428
      5 C          24.7967   -0.0605  -11.4946 C.ar    1  LIG1        0.0082
      6 C          26.0077   -0.2336  -10.8115 C.ar    1  LIG1        0.0185
      7 C          26.0091   -0.7786   -9.5174 C.ar    1  LIG1        0.1038
      8 C          24.7944   -1.0867   -8.9034 C.ar    1  LIG1       -0.0327
      9 C          23.5936   -0.9312   -9.5951 C.ar    1  LIG1       -0.0172
     10 C          23.5911   -0.4269  -10.8990 C.ar    1  LIG1        0.1323
     11 O          22.4730   -0.2997  -11.6967 O.3     1  LIG1       -0.4542
     12 C          21.2211   -0.5557  -11.2088 C.ar    1  LIG1        0.1477
     13 C          20.5807   -1.7704  -11.4636 C.ar    1  LIG1        0.0699
     14 N          19.3293   -2.0485  -11.0244 N.ar    1  LIG1       -0.2583
     15 C          18.6868   -1.0883  -10.3158 C.ar    1  LIG1        0.0452
     16 C          19.2441    0.1607  -10.0304 C.ar    1  LIG1        0.0733
     17 C          18.5232    1.1702   -9.2782 C.1     1  LIG1        0.1008
     18 C          20.5375    0.4137  -10.4764 C.ar    1  LIG1        0.0010
     19 S          27.5181   -1.0772   -8.5972 S.O2    1  LIG1        0.0911
     20 O          27.2199   -2.0291   -7.5251 O.2     1  LIG1       -0.1612
     21 O          28.5736   -1.4146   -9.5547 O.2     1  LIG1       -0.1612
     22 C          27.9098    0.6015   -7.8247 C.3     1  LIG1        0.5261
     23 F          27.0599    1.2997  -13.8390 F       1  LIG1       -0.2021
     24 F          26.6397   -0.8135  -13.6733 F       1  LIG1       -0.2021
     25 N          17.9557    1.9748   -8.6688 N.1     1  LIG1       -0.1908
     26 F          29.1729    0.5500   -7.4603 F       1  LIG1       -0.1500
     27 F          27.7563    1.5773   -8.6957 F       1  LIG1       -0.1500
     28 F          27.1098    0.7930   -6.7781 F       1  LIG1       -0.1500
     29 H          28.3814    1.8217  -11.7482 H       1  LIG1        0.2105
     30 H          27.9776   -0.4206  -11.7025 H       1  LIG1        0.0704
     31 H          24.4121    0.1832  -13.6241 H       1  LIG1        0.0373
     32 H          24.8083    1.6771  -12.7815 H       1  LIG1        0.0373
     33 H          24.7762   -1.4676   -7.8938 H       1  LIG1        0.0638
     34 H          22.6785   -1.2385   -9.1186 H       1  LIG1        0.0655
     35 H          21.0644   -2.5457  -12.0352 H       1  LIG1        0.0867
     36 H          17.7081   -1.3631   -9.9794 H       1  LIG1        0.0842
     37 H          21.0111    1.3563  -10.2603 H       1  LIG1        0.0668
@<TRIPOS>BOND
     1     1     2    1
     2     1    29    1
     3     2     3    1
     4     2     6    1
     5     2    30    1
     6     3     4    1
     7     3    23    1
     8     3    24    1
     9     4     5    1
    10     4    31    1
    11     4    32    1
    12     5     6   ar
    13     5    10   ar
    14     6     7   ar
    15     7     8   ar
    16     7    19    1
    17     8     9   ar
    18     8    33    1
    19     9    10   ar
    20     9    34    1
    21    10    11    1
    22    11    12    1
    23    12    13   ar
    24    12    18   ar
    25    13    14   ar
    26    13    35    1
    27    14    15   ar
    28    15    16   ar
    29    15    36    1
    30    16    17    1
    31    16    18   ar
    32    17    25    3
    33    18    37    1
    34    19    20    2
    35    19    21    2
    36    19    22    1
    37    22    26    1
    38    22    27    1
    39    22    28    1
