@<TRIPOS>MOLECULE
237
 38 40 0 0 0
SMALL
GASTEIGER
****
Structure written by MMmdl.
@<TRIPOS>ATOM
      1 O          27.8741   -0.4334  -11.8881 O.3     1  LIG1       -0.3812
      2 C          26.9533    0.5103  -11.4691 C.3     1  LIG1        0.1455
      3 C          26.2123    1.1350  -12.6505 C.3     1  LIG1        0.2823
      4 C          24.8814    0.4428  -12.7971 C.3     1  LIG1        0.0428
      5 C          24.6562   -0.1013  -11.4106 C.ar    1  LIG1        0.0082
      6 C          25.8419   -0.1153  -10.6575 C.ar    1  LIG1        0.0184
      7 C          25.8608   -0.7137   -9.3921 C.ar    1  LIG1        0.1007
      8 C          24.6666   -1.1821   -8.8556 C.ar    1  LIG1       -0.0328
      9 C          23.4957   -1.1640   -9.6018 C.ar    1  LIG1       -0.0172
     10 C          23.4866   -0.6454  -10.8961 C.ar    1  LIG1        0.1322
     11 O          22.3959   -0.6294  -11.7424 O.3     1  LIG1       -0.4556
     12 C          21.1512   -0.8062  -11.2113 C.ar    1  LIG1        0.1324
     13 C          20.5139   -2.0346  -11.3575 C.ar    1  LIG1        0.0160
     14 C          19.2861   -2.2462  -10.7434 C.ar    1  LIG1        0.1281
     15 C          18.6869   -1.2275   -9.9984 C.ar    1  LIG1       -0.0088
     16 C          19.2935    0.0276   -9.9139 C.ar    1  LIG1        0.0580
     17 C          18.6677    1.1330   -9.2217 C.1     1  LIG1        0.0994
     18 C          20.5431    0.2205  -10.5011 C.ar    1  LIG1       -0.0018
     19 S          27.3544   -0.9316   -8.4201 S.O2    1  LIG1        0.0583
     20 O          27.0859   -2.0306   -7.4835 O.2     1  LIG1       -0.1639
     21 O          28.5108   -1.0162   -9.3142 O.2     1  LIG1       -0.1639
     22 C          27.4424    0.7020   -7.4764 C.3     1  LIG1        0.3566
     23 F          25.9408    2.3663  -12.2653 F       1  LIG1       -0.2021
     24 F          26.9134    1.1664  -13.7919 F       1  LIG1       -0.2021
     25 N          18.1713    2.0136   -8.6640 N.1     1  LIG1       -0.1909
     26 F          27.4016    1.6993   -8.3556 F       1  LIG1       -0.1834
     27 F          26.4012    0.7578   -6.6504 F       1  LIG1       -0.1834
     28 F          18.6855   -3.4418  -10.8633 F       1  LIG1       -0.2053
     29 H          28.6720    0.0152  -12.1950 H       1  LIG1        0.2105
     30 H          27.5009    1.2650  -10.9032 H       1  LIG1        0.0704
     31 H          24.9483   -0.3583  -13.5290 H       1  LIG1        0.0373
     32 H          24.0975    1.1265  -13.1204 H       1  LIG1        0.0373
     33 H          24.6404   -1.6102   -7.8694 H       1  LIG1        0.0638
     34 H          22.6040   -1.6081   -9.1858 H       1  LIG1        0.0655
     35 H          20.9886   -2.8350  -11.8914 H       1  LIG1        0.0683
     36 H          17.7800   -1.4545   -9.4636 H       1  LIG1        0.0659
     37 H          21.0611    1.1592  -10.3869 H       1  LIG1        0.0667
     38 H          28.3614    0.7441   -6.8868 H       1  LIG1        0.1280
@<TRIPOS>BOND
     1     1     2    1
     2     1    29    1
     3     2     3    1
     4     2     6    1
     5     2    30    1
     6     3     4    1
     7     3    23    1
     8     3    24    1
     9     4     5    1
    10     4    31    1
    11     4    32    1
    12     5     6   ar
    13     5    10   ar
    14     6     7   ar
    15     7     8   ar
    16     7    19    1
    17     8     9   ar
    18     8    33    1
    19     9    10   ar
    20     9    34    1
    21    10    11    1
    22    11    12    1
    23    12    13   ar
    24    12    18   ar
    25    13    14   ar
    26    13    35    1
    27    14    15   ar
    28    14    28    1
    29    15    16   ar
    30    15    36    1
    31    16    17    1
    32    16    18   ar
    33    17    25    3
    34    18    37    1
    35    19    20    2
    36    19    21    2
    37    19    22    1
    38    22    26    1
    39    22    27    1
    40    22    38    1
