237
 OpenBabel02152110423D
Structure written by MMmdl.
 38 40  0  0  1  0  0  0  0  0999 V2000
   27.8741   -0.4334  -11.8881 O   0  0  0  0  0  0  0  0  0  0  0  0
   26.9533    0.5103  -11.4691 C   0  0  1  0  0  0  0  0  0  0  0  0
   26.2123    1.1350  -12.6505 C   0  0  0  0  0  0  0  0  0  0  0  0
   24.8814    0.4428  -12.7971 C   0  0  0  0  0  0  0  0  0  0  0  0
   24.6562   -0.1013  -11.4106 C   0  0  0  0  0  0  0  0  0  0  0  0
   25.8419   -0.1153  -10.6575 C   0  0  0  0  0  0  0  0  0  0  0  0
   25.8608   -0.7137   -9.3921 C   0  0  0  0  0  0  0  0  0  0  0  0
   24.6666   -1.1821   -8.8556 C   0  0  0  0  0  0  0  0  0  0  0  0
   23.4957   -1.1640   -9.6018 C   0  0  0  0  0  0  0  0  0  0  0  0
   23.4866   -0.6454  -10.8961 C   0  0  0  0  0  0  0  0  0  0  0  0
   22.3959   -0.6294  -11.7424 O   0  0  0  0  0  0  0  0  0  0  0  0
   21.1512   -0.8062  -11.2113 C   0  0  0  0  0  0  0  0  0  0  0  0
   20.5139   -2.0346  -11.3575 C   0  0  0  0  0  0  0  0  0  0  0  0
   19.2861   -2.2462  -10.7434 C   0  0  0  0  0  0  0  0  0  0  0  0
   18.6869   -1.2275   -9.9984 C   0  0  0  0  0  0  0  0  0  0  0  0
   19.2935    0.0276   -9.9139 C   0  0  0  0  0  0  0  0  0  0  0  0
   18.6677    1.1330   -9.2217 C   0  0  0  0  0  0  0  0  0  0  0  0
   20.5431    0.2205  -10.5011 C   0  0  0  0  0  0  0  0  0  0  0  0
   27.3544   -0.9316   -8.4201 S   0  0  0  0  0  0  0  0  0  0  0  0
   27.0859   -2.0306   -7.4835 O   0  0  0  0  0  0  0  0  0  0  0  0
   28.5108   -1.0162   -9.3142 O   0  0  0  0  0  0  0  0  0  0  0  0
   27.4424    0.7020   -7.4764 C   0  0  0  0  0  0  0  0  0  0  0  0
   25.9408    2.3663  -12.2653 F   0  0  0  0  0  0  0  0  0  0  0  0
   26.9134    1.1664  -13.7919 F   0  0  0  0  0  0  0  0  0  0  0  0
   18.1713    2.0136   -8.6640 N   0  0  0  0  0  0  0  0  0  0  0  0
   27.4016    1.6993   -8.3556 F   0  0  0  0  0  0  0  0  0  0  0  0
   26.4012    0.7578   -6.6504 F   0  0  0  0  0  0  0  0  0  0  0  0
   18.6855   -3.4418  -10.8633 F   0  0  0  0  0  0  0  0  0  0  0  0
   28.6720    0.0152  -12.1950 H   0  0  0  0  0  0  0  0  0  0  0  0
   27.5009    1.2650  -10.9032 H   0  0  0  0  0  0  0  0  0  0  0  0
   24.9483   -0.3583  -13.5290 H   0  0  0  0  0  0  0  0  0  0  0  0
   24.0975    1.1265  -13.1204 H   0  0  0  0  0  0  0  0  0  0  0  0
   24.6404   -1.6102   -7.8694 H   0  0  0  0  0  0  0  0  0  0  0  0
   22.6040   -1.6081   -9.1858 H   0  0  0  0  0  0  0  0  0  0  0  0
   20.9886   -2.8350  -11.8914 H   0  0  0  0  0  0  0  0  0  0  0  0
   17.7800   -1.4545   -9.4636 H   0  0  0  0  0  0  0  0  0  0  0  0
   21.0611    1.1592  -10.3869 H   0  0  0  0  0  0  0  0  0  0  0  0
   28.3614    0.7441   -6.8868 H   0  0  0  0  0  0  0  0  0  0  0  0
  1  2  1  0  0  0  0
  1 29  1  0  0  0  0
  2  3  1  0  0  0  0
  2  6  1  0  0  0  0
  2 30  1  1  0  0  0
  3  4  1  0  0  0  0
  3 23  1  0  0  0  0
  3 24  1  0  0  0  0
  4  5  1  0  0  0  0
  4 31  1  0  0  0  0
  4 32  1  0  0  0  0
  5  6  2  0  0  0  0
  5 10  1  0  0  0  0
  6  7  1  0  0  0  0
  7  8  2  0  0  0  0
  7 19  1  0  0  0  0
  8  9  1  0  0  0  0
  8 33  1  0  0  0  0
  9 10  2  0  0  0  0
  9 34  1  0  0  0  0
 10 11  1  0  0  0  0
 11 12  1  0  0  0  0
 12 13  2  0  0  0  0
 12 18  1  0  0  0  0
 13 14  1  0  0  0  0
 13 35  1  0  0  0  0
 14 15  2  0  0  0  0
 14 28  1  0  0  0  0
 15 16  1  0  0  0  0
 15 36  1  0  0  0  0
 16 17  1  0  0  0  0
 16 18  2  0  0  0  0
 17 25  3  0  0  0  0
 18 37  1  0  0  0  0
 19 20  2  0  0  0  0
 19 21  2  0  0  0  0
 19 22  1  0  0  0  0
 22 26  1  0  0  0  0
 22 27  1  0  0  0  0
 22 38  1  0  0  0  0
M  END
>  <ID>
237

>  <IC50[uM](SPA)>
0.1

$$$$
