@<TRIPOS>MOLECULE
25
 36 38 0 0 0
SMALL
GASTEIGER
****
Structure written by MMmdl.
@<TRIPOS>ATOM
      1 O          27.5859    1.5623  -11.2324 O.3     1  LIG1       -0.3812
      2 C          27.1492    0.2971  -11.6733 C.3     1  LIG1        0.1455
      3 C          26.5076    0.3637  -13.0705 C.3     1  LIG1        0.2823
      4 C          25.0245    0.6054  -12.8334 C.3     1  LIG1        0.0428
      5 C          24.7996   -0.0551  -11.4938 C.ar    1  LIG1        0.0082
      6 C          26.0078   -0.2311  -10.8127 C.ar    1  LIG1        0.0184
      7 C          26.0108   -0.7709   -9.5133 C.ar    1  LIG1        0.1007
      8 C          24.8035   -1.0874   -8.9001 C.ar    1  LIG1       -0.0328
      9 C          23.5881   -0.9333   -9.6008 C.ar    1  LIG1       -0.0172
     10 C          23.5951   -0.4351  -10.8957 C.ar    1  LIG1        0.1323
     11 O          22.4690   -0.2899  -11.6964 O.3     1  LIG1       -0.4542
     12 C          21.2387   -0.6920  -11.2605 C.ar    1  LIG1        0.1478
     13 C          20.3852    0.2262  -10.6417 C.ar    1  LIG1        0.0020
     14 C          19.1164   -0.1734  -10.2278 C.ar    1  LIG1        0.0625
     15 CL         18.0692    0.9590   -9.4559 Cl      1  LIG1       -0.0819
     16 C          18.7285   -1.4968  -10.4568 C.ar    1  LIG1        0.0461
     17 N          19.5276   -2.4069  -11.0647 N.ar    1  LIG1       -0.2582
     18 C          20.7667   -1.9978  -11.4607 C.ar    1  LIG1        0.0699
     19 S          27.5322   -1.0704   -8.5909 S.O2    1  LIG1        0.0583
     20 O          27.2287   -2.0196   -7.5193 O.2     1  LIG1       -0.1639
     21 O          28.5815   -1.4021   -9.5453 O.2     1  LIG1       -0.1639
     22 C          27.9369    0.6210   -7.8282 C.3     1  LIG1        0.3566
     23 F          27.8067    1.5658   -8.7311 F       1  LIG1       -0.1834
     24 F          27.0921    0.8174   -6.7982 F       1  LIG1       -0.1834
     25 F          27.0574    1.2966  -13.8388 F       1  LIG1       -0.2021
     26 F          26.6394   -0.8195  -13.6770 F       1  LIG1       -0.2021
     27 H          28.3654    1.8186  -11.7483 H       1  LIG1        0.2105
     28 H          27.9795   -0.4193  -11.6983 H       1  LIG1        0.0704
     29 H          24.8071    1.6777  -12.7817 H       1  LIG1        0.0373
     30 H          24.4128    0.1822  -13.6214 H       1  LIG1        0.0373
     31 H          24.7768   -1.4645   -7.8942 H       1  LIG1        0.0638
     32 H          22.6768   -1.2344   -9.1176 H       1  LIG1        0.0655
     33 H          20.7002    1.2442  -10.4779 H       1  LIG1        0.0670
     34 H          17.7565   -1.8493  -10.1507 H       1  LIG1        0.0844
     35 H          21.3860   -2.7416  -11.9336 H       1  LIG1        0.0867
     36 H          28.9749    0.6019   -7.4639 H       1  LIG1        0.1280
@<TRIPOS>BOND
     1     1     2    1
     2     1    27    1
     3     2     3    1
     4     2     6    1
     5     2    28    1
     6     3     4    1
     7     3    25    1
     8     3    26    1
     9     4     5    1
    10     4    29    1
    11     4    30    1
    12     5     6   ar
    13     5    10   ar
    14     6     7   ar
    15     7     8   ar
    16     7    19    1
    17     8     9   ar
    18     8    31    1
    19     9    10   ar
    20     9    32    1
    21    10    11    1
    22    11    12    1
    23    12    13   ar
    24    12    18   ar
    25    13    14   ar
    26    13    33    1
    27    14    15    1
    28    14    16   ar
    29    16    17   ar
    30    16    34    1
    31    17    18   ar
    32    18    35    1
    33    19    20    2
    34    19    21    2
    35    19    22    1
    36    22    23    1
    37    22    24    1
    38    22    36    1
