25
 OpenBabel02152110423D
Structure written by MMmdl.
 36 38  0  0  1  0  0  0  0  0999 V2000
   27.5859    1.5623  -11.2324 O   0  0  0  0  0  0  0  0  0  0  0  0
   27.1492    0.2971  -11.6733 C   0  0  2  0  0  0  0  0  0  0  0  0
   26.5076    0.3637  -13.0705 C   0  0  0  0  0  0  0  0  0  0  0  0
   25.0245    0.6054  -12.8334 C   0  0  0  0  0  0  0  0  0  0  0  0
   24.7996   -0.0551  -11.4938 C   0  0  0  0  0  0  0  0  0  0  0  0
   26.0078   -0.2311  -10.8127 C   0  0  0  0  0  0  0  0  0  0  0  0
   26.0108   -0.7709   -9.5133 C   0  0  0  0  0  0  0  0  0  0  0  0
   24.8035   -1.0874   -8.9001 C   0  0  0  0  0  0  0  0  0  0  0  0
   23.5881   -0.9333   -9.6008 C   0  0  0  0  0  0  0  0  0  0  0  0
   23.5951   -0.4351  -10.8957 C   0  0  0  0  0  0  0  0  0  0  0  0
   22.4690   -0.2899  -11.6964 O   0  0  0  0  0  0  0  0  0  0  0  0
   21.2387   -0.6920  -11.2605 C   0  0  0  0  0  0  0  0  0  0  0  0
   20.3852    0.2262  -10.6417 C   0  0  0  0  0  0  0  0  0  0  0  0
   19.1164   -0.1734  -10.2278 C   0  0  0  0  0  0  0  0  0  0  0  0
   18.0692    0.9590   -9.4559 Cl  0  0  0  0  0  0  0  0  0  0  0  0
   18.7285   -1.4968  -10.4568 C   0  0  0  0  0  0  0  0  0  0  0  0
   19.5276   -2.4069  -11.0647 N   0  0  0  0  0  0  0  0  0  0  0  0
   20.7667   -1.9978  -11.4607 C   0  0  0  0  0  0  0  0  0  0  0  0
   27.5322   -1.0704   -8.5909 S   0  0  0  0  0  0  0  0  0  0  0  0
   27.2287   -2.0196   -7.5193 O   0  0  0  0  0  0  0  0  0  0  0  0
   28.5815   -1.4021   -9.5453 O   0  0  0  0  0  0  0  0  0  0  0  0
   27.9369    0.6210   -7.8282 C   0  0  0  0  0  0  0  0  0  0  0  0
   27.8067    1.5658   -8.7311 F   0  0  0  0  0  0  0  0  0  0  0  0
   27.0921    0.8174   -6.7982 F   0  0  0  0  0  0  0  0  0  0  0  0
   27.0574    1.2966  -13.8388 F   0  0  0  0  0  0  0  0  0  0  0  0
   26.6394   -0.8195  -13.6770 F   0  0  0  0  0  0  0  0  0  0  0  0
   28.3654    1.8186  -11.7483 H   0  0  0  0  0  0  0  0  0  0  0  0
   27.9795   -0.4193  -11.6983 H   0  0  0  0  0  0  0  0  0  0  0  0
   24.8071    1.6777  -12.7817 H   0  0  0  0  0  0  0  0  0  0  0  0
   24.4128    0.1822  -13.6214 H   0  0  0  0  0  0  0  0  0  0  0  0
   24.7768   -1.4645   -7.8942 H   0  0  0  0  0  0  0  0  0  0  0  0
   22.6768   -1.2344   -9.1176 H   0  0  0  0  0  0  0  0  0  0  0  0
   20.7002    1.2442  -10.4779 H   0  0  0  0  0  0  0  0  0  0  0  0
   17.7565   -1.8493  -10.1507 H   0  0  0  0  0  0  0  0  0  0  0  0
   21.3860   -2.7416  -11.9336 H   0  0  0  0  0  0  0  0  0  0  0  0
   28.9749    0.6019   -7.4639 H   0  0  0  0  0  0  0  0  0  0  0  0
  1  2  1  0  0  0  0
  1 27  1  0  0  0  0
  2  3  1  0  0  0  0
  2  6  1  0  0  0  0
  2 28  1  1  0  0  0
  3  4  1  0  0  0  0
  3 25  1  0  0  0  0
  3 26  1  0  0  0  0
  4  5  1  0  0  0  0
  4 29  1  0  0  0  0
  4 30  1  0  0  0  0
  5  6  2  0  0  0  0
  5 10  1  0  0  0  0
  6  7  1  0  0  0  0
  7  8  2  0  0  0  0
  7 19  1  0  0  0  0
  8  9  1  0  0  0  0
  8 31  1  0  0  0  0
  9 10  2  0  0  0  0
  9 32  1  0  0  0  0
 10 11  1  0  0  0  0
 11 12  1  0  0  0  0
 12 13  2  0  0  0  0
 12 18  1  0  0  0  0
 13 14  1  0  0  0  0
 13 33  1  0  0  0  0
 14 15  1  0  0  0  0
 14 16  2  0  0  0  0
 16 17  1  0  0  0  0
 16 34  1  0  0  0  0
 17 18  2  0  0  0  0
 18 35  1  0  0  0  0
 19 20  2  0  0  0  0
 19 21  2  0  0  0  0
 19 22  1  0  0  0  0
 22 23  1  0  0  0  0
 22 24  1  0  0  0  0
 22 36  1  0  0  0  0
M  END
>  <ID>
25

>  <IC50[uM](SPA)>
0.029

$$$$
