@<TRIPOS>MOLECULE
251
 39 41 0 0 0
SMALL
GASTEIGER
****
Structure written by MMmdl.
@<TRIPOS>ATOM
      1 O          27.4945    1.5901  -11.4326 O.3     1  LIG1       -0.3812
      2 C          27.1374    0.2686  -11.7191 C.3     1  LIG1        0.1456
      3 C          26.4953    0.3323  -13.0981 C.3     1  LIG1        0.2823
      4 C          25.0217    0.5994  -12.8429 C.3     1  LIG1        0.0428
      5 C          24.8020   -0.0597  -11.4964 C.ar    1  LIG1        0.0083
      6 C          26.0153   -0.2255  -10.8167 C.ar    1  LIG1        0.0197
      7 C          26.0241   -0.7593   -9.5118 C.ar    1  LIG1        0.1115
      8 C          24.8061   -1.0787   -8.9024 C.ar    1  LIG1       -0.0315
      9 C          23.6060   -0.9317   -9.5932 C.ar    1  LIG1       -0.0172
     10 C          23.6016   -0.4258  -10.8989 C.ar    1  LIG1        0.1322
     11 O          22.4847   -0.2873  -11.6913 O.3     1  LIG1       -0.4556
     12 C          21.2447   -0.5730  -11.1948 C.ar    1  LIG1        0.1339
     13 C          20.5522    0.3978  -10.4720 C.ar    1  LIG1        0.0161
     14 C          19.2931    0.1248   -9.9600 C.ar    1  LIG1        0.1296
     15 F          18.6203    1.0830   -9.2845 F       1  LIG1       -0.2053
     16 C          18.7413   -1.1375  -10.1417 C.ar    1  LIG1        0.0090
     17 C          19.4210   -2.1088  -10.8684 C.ar    1  LIG1        0.1296
     18 F          18.8530   -3.3145  -11.0601 F       1  LIG1       -0.2053
     19 C          20.6751   -1.8286  -11.4013 C.ar    1  LIG1        0.0161
     20 S          27.5391   -1.0647   -8.5878 S.O2    1  LIG1        0.0585
     21 O          28.5975   -1.3882   -9.5392 O.2     1  LIG1       -0.1530
     22 O          27.2312   -2.0153   -7.5145 O.2     1  LIG1       -0.1530
     23 N          27.9407    0.4584   -7.8059 N.3     1  LIG1       -0.1930
     24 F          27.0378    1.2658  -13.8907 F       1  LIG1       -0.2021
     25 F          26.6284   -0.8376  -13.6973 F       1  LIG1       -0.2021
     26 C          28.4928    1.5464   -8.6066 C.3     1  LIG1        0.0059
     27 H          28.3741    1.7859  -11.8038 H       1  LIG1        0.2105
     28 H          27.9892   -0.4124  -11.7122 H       1  LIG1        0.0704
     29 H          24.8113    1.6720  -12.7864 H       1  LIG1        0.0373
     30 H          24.3984    0.1783  -13.6254 H       1  LIG1        0.0373
     31 H          24.7828   -1.4635   -7.8934 H       1  LIG1        0.0638
     32 H          22.6875   -1.2371   -9.1179 H       1  LIG1        0.0655
     33 H          20.9875    1.3612  -10.2718 H       1  LIG1        0.0683
     34 H          17.7955   -1.3802   -9.7072 H       1  LIG1        0.0675
     35 H          21.2077   -2.5898  -11.9503 H       1  LIG1        0.0683
     36 H          28.3589    0.3734   -6.8803 H       1  LIG1        0.1477
     37 H          28.5484    2.4694   -8.0394 H       1  LIG1        0.0405
     38 H          27.7523    1.7872   -9.3272 H       1  LIG1        0.0405
     39 H          29.4721    1.2647   -9.0380 H       1  LIG1        0.0405
@<TRIPOS>BOND
     1     1     2    1
     2     1    27    1
     3     2     3    1
     4     2     6    1
     5     2    28    1
     6     3     4    1
     7     3    24    1
     8     3    25    1
     9     4     5    1
    10     4    29    1
    11     4    30    1
    12     5     6   ar
    13     5    10   ar
    14     6     7   ar
    15     7     8   ar
    16     7    20    1
    17     8     9   ar
    18     8    31    1
    19     9    10   ar
    20     9    32    1
    21    10    11    1
    22    11    12    1
    23    12    13   ar
    24    12    19   ar
    25    13    14   ar
    26    13    33    1
    27    14    15    1
    28    14    16   ar
    29    16    17   ar
    30    16    34    1
    31    17    18    1
    32    17    19   ar
    33    19    35    1
    34    20    21    2
    35    20    22    2
    36    20    23    1
    37    23    26    1
    38    23    36    1
    39    26    37    1
    40    26    38    1
    41    26    39    1
