251
 OpenBabel02152110423D
Structure written by MMmdl.
 39 41  0  0  1  0  0  0  0  0999 V2000
   27.4945    1.5901  -11.4326 O   0  0  0  0  0  0  0  0  0  0  0  0
   27.1374    0.2686  -11.7191 C   0  0  2  0  0  0  0  0  0  0  0  0
   26.4953    0.3323  -13.0981 C   0  0  0  0  0  0  0  0  0  0  0  0
   25.0217    0.5994  -12.8429 C   0  0  0  0  0  0  0  0  0  0  0  0
   24.8020   -0.0597  -11.4964 C   0  0  0  0  0  0  0  0  0  0  0  0
   26.0153   -0.2255  -10.8167 C   0  0  0  0  0  0  0  0  0  0  0  0
   26.0241   -0.7593   -9.5118 C   0  0  0  0  0  0  0  0  0  0  0  0
   24.8061   -1.0787   -8.9024 C   0  0  0  0  0  0  0  0  0  0  0  0
   23.6060   -0.9317   -9.5932 C   0  0  0  0  0  0  0  0  0  0  0  0
   23.6016   -0.4258  -10.8989 C   0  0  0  0  0  0  0  0  0  0  0  0
   22.4847   -0.2873  -11.6913 O   0  0  0  0  0  0  0  0  0  0  0  0
   21.2447   -0.5730  -11.1948 C   0  0  0  0  0  0  0  0  0  0  0  0
   20.5522    0.3978  -10.4720 C   0  0  0  0  0  0  0  0  0  0  0  0
   19.2931    0.1248   -9.9600 C   0  0  0  0  0  0  0  0  0  0  0  0
   18.6203    1.0830   -9.2845 F   0  0  0  0  0  0  0  0  0  0  0  0
   18.7413   -1.1375  -10.1417 C   0  0  0  0  0  0  0  0  0  0  0  0
   19.4210   -2.1088  -10.8684 C   0  0  0  0  0  0  0  0  0  0  0  0
   18.8530   -3.3145  -11.0601 F   0  0  0  0  0  0  0  0  0  0  0  0
   20.6751   -1.8286  -11.4013 C   0  0  0  0  0  0  0  0  0  0  0  0
   27.5391   -1.0647   -8.5878 S   0  0  0  0  0  0  0  0  0  0  0  0
   28.5975   -1.3882   -9.5392 O   0  0  0  0  0  0  0  0  0  0  0  0
   27.2312   -2.0153   -7.5145 O   0  0  0  0  0  0  0  0  0  0  0  0
   27.9407    0.4584   -7.8059 N   0  0  0  0  0  0  0  0  0  0  0  0
   27.0378    1.2658  -13.8907 F   0  0  0  0  0  0  0  0  0  0  0  0
   26.6284   -0.8376  -13.6973 F   0  0  0  0  0  0  0  0  0  0  0  0
   28.4928    1.5464   -8.6066 C   0  0  0  0  0  0  0  0  0  0  0  0
   28.3741    1.7859  -11.8038 H   0  0  0  0  0  0  0  0  0  0  0  0
   27.9892   -0.4124  -11.7122 H   0  0  0  0  0  0  0  0  0  0  0  0
   24.8113    1.6720  -12.7864 H   0  0  0  0  0  0  0  0  0  0  0  0
   24.3984    0.1783  -13.6254 H   0  0  0  0  0  0  0  0  0  0  0  0
   24.7828   -1.4635   -7.8934 H   0  0  0  0  0  0  0  0  0  0  0  0
   22.6875   -1.2371   -9.1179 H   0  0  0  0  0  0  0  0  0  0  0  0
   20.9875    1.3612  -10.2718 H   0  0  0  0  0  0  0  0  0  0  0  0
   17.7955   -1.3802   -9.7072 H   0  0  0  0  0  0  0  0  0  0  0  0
   21.2077   -2.5898  -11.9503 H   0  0  0  0  0  0  0  0  0  0  0  0
   28.3589    0.3734   -6.8803 H   0  0  0  0  0  0  0  0  0  0  0  0
   28.5484    2.4694   -8.0394 H   0  0  0  0  0  0  0  0  0  0  0  0
   27.7523    1.7872   -9.3272 H   0  0  0  0  0  0  0  0  0  0  0  0
   29.4721    1.2647   -9.0380 H   0  0  0  0  0  0  0  0  0  0  0  0
  1  2  1  0  0  0  0
  1 27  1  0  0  0  0
  2  3  1  0  0  0  0
  2  6  1  0  0  0  0
  2 28  1  1  0  0  0
  3  4  1  0  0  0  0
  3 24  1  0  0  0  0
  3 25  1  0  0  0  0
  4  5  1  0  0  0  0
  4 29  1  0  0  0  0
  4 30  1  0  0  0  0
  5  6  2  0  0  0  0
  5 10  1  0  0  0  0
  6  7  1  0  0  0  0
  7  8  2  0  0  0  0
  7 20  1  0  0  0  0
  8  9  1  0  0  0  0
  8 31  1  0  0  0  0
  9 10  2  0  0  0  0
  9 32  1  0  0  0  0
 10 11  1  0  0  0  0
 11 12  1  0  0  0  0
 12 13  2  0  0  0  0
 12 19  1  0  0  0  0
 13 14  1  0  0  0  0
 13 33  1  0  0  0  0
 14 15  1  0  0  0  0
 14 16  2  0  0  0  0
 16 17  1  0  0  0  0
 16 34  1  0  0  0  0
 17 18  1  0  0  0  0
 17 19  2  0  0  0  0
 19 35  1  0  0  0  0
 20 21  2  0  0  0  0
 20 22  2  0  0  0  0
 20 23  1  0  0  0  0
 23 26  1  0  0  0  0
 23 36  1  0  0  0  0
 26 37  1  0  0  0  0
 26 38  1  0  0  0  0
 26 39  1  0  0  0  0
M  END
>  <ID>
251

>  <IC50[uM](SPA)>
0.031

$$$$
