252
 OpenBabel02152110423D
Structure written by MMmdl.
 37 39  0  0  1  0  0  0  0  0999 V2000
   27.6272    1.5392  -11.1203 O   0  0  0  0  0  0  0  0  0  0  0  0
   27.1560    0.3040  -11.6456 C   0  0  2  0  0  0  0  0  0  0  0  0
   26.5217    0.3806  -13.0460 C   0  0  0  0  0  0  0  0  0  0  0  0
   25.0330    0.5955  -12.8364 C   0  0  0  0  0  0  0  0  0  0  0  0
   24.8086   -0.0746  -11.4954 C   0  0  0  0  0  0  0  0  0  0  0  0
   26.0176   -0.2341  -10.8015 C   0  0  0  0  0  0  0  0  0  0  0  0
   26.0221   -0.7646   -9.5003 C   0  0  0  0  0  0  0  0  0  0  0  0
   24.8023   -1.0839   -8.8976 C   0  0  0  0  0  0  0  0  0  0  0  0
   23.6037   -0.9285   -9.5871 C   0  0  0  0  0  0  0  0  0  0  0  0
   23.6033   -0.4271  -10.8952 C   0  0  0  0  0  0  0  0  0  0  0  0
   22.4845   -0.2768  -11.6823 O   0  0  0  0  0  0  0  0  0  0  0  0
   21.2452   -0.5718  -11.1881 C   0  0  0  0  0  0  0  0  0  0  0  0
   20.6754   -1.8264  -11.4017 C   0  0  0  0  0  0  0  0  0  0  0  0
   19.4205   -2.1096  -10.8738 C   0  0  0  0  0  0  0  0  0  0  0  0
   18.8538   -3.3152  -11.0677 F   0  0  0  0  0  0  0  0  0  0  0  0
   18.7369   -1.1453  -10.1422 C   0  0  0  0  0  0  0  0  0  0  0  0
   19.2852    0.1248   -9.9603 C   0  0  0  0  0  0  0  0  0  0  0  0
   18.5778    1.1653   -9.2362 C   0  0  0  0  0  0  0  0  0  0  0  0
   20.5515    0.3943  -10.4623 C   0  0  0  0  0  0  0  0  0  0  0  0
   27.5325   -1.0603   -8.5700 S   0  0  0  0  0  0  0  0  0  0  0  0
   27.2148   -1.9861   -7.4807 O   0  0  0  0  0  0  0  0  0  0  0  0
   28.6045   -1.3793   -9.5081 O   0  0  0  0  0  0  0  0  0  0  0  0
   27.9346    0.4720   -7.8610 N   0  0  0  0  0  0  0  0  0  0  0  0
   27.0654    1.3180  -13.8219 F   0  0  0  0  0  0  0  0  0  0  0  0
   26.6664   -0.7984  -13.6558 F   0  0  0  0  0  0  0  0  0  0  0  0
   18.0227    1.9941   -8.6522 N   0  0  0  0  0  0  0  0  0  0  0  0
   28.3555    1.8653  -11.6765 H   0  0  0  0  0  0  0  0  0  0  0  0
   27.9781   -0.4091  -11.7063 H   0  0  0  0  0  0  0  0  0  0  0  0
   24.4242    0.1890  -13.6462 H   0  0  0  0  0  0  0  0  0  0  0  0
   24.8013    1.6590  -12.7701 H   0  0  0  0  0  0  0  0  0  0  0  0
   24.7765   -1.4822   -7.8947 H   0  0  0  0  0  0  0  0  0  0  0  0
   22.6850   -1.2325   -9.1075 H   0  0  0  0  0  0  0  0  0  0  0  0
   21.2121   -2.5898  -11.9431 H   0  0  0  0  0  0  0  0  0  0  0  0
   17.8013   -1.4259   -9.7039 H   0  0  0  0  0  0  0  0  0  0  0  0
   21.0089    1.3503  -10.2685 H   0  0  0  0  0  0  0  0  0  0  0  0
   27.2535    0.7935   -7.1729 H   0  0  0  0  0  0  0  0  0  0  0  0
   28.1763    1.1767   -8.5625 H   0  0  0  0  0  0  0  0  0  0  0  0
  1  2  1  0  0  0  0
  1 27  1  0  0  0  0
  2  3  1  0  0  0  0
  2  6  1  0  0  0  0
  2 28  1  6  0  0  0
  3  4  1  0  0  0  0
  3 24  1  0  0  0  0
  3 25  1  0  0  0  0
  4  5  1  0  0  0  0
  4 29  1  0  0  0  0
  4 30  1  0  0  0  0
  5  6  2  0  0  0  0
  5 10  1  0  0  0  0
  6  7  1  0  0  0  0
  7  8  2  0  0  0  0
  7 20  1  0  0  0  0
  8  9  1  0  0  0  0
  8 31  1  0  0  0  0
  9 10  2  0  0  0  0
  9 32  1  0  0  0  0
 10 11  1  0  0  0  0
 11 12  1  0  0  0  0
 12 13  2  0  0  0  0
 12 19  1  0  0  0  0
 13 14  1  0  0  0  0
 13 33  1  0  0  0  0
 14 15  1  0  0  0  0
 14 16  2  0  0  0  0
 16 17  1  0  0  0  0
 16 34  1  0  0  0  0
 17 18  1  0  0  0  0
 17 19  2  0  0  0  0
 18 26  3  0  0  0  0
 19 35  1  0  0  0  0
 20 21  2  0  0  0  0
 20 22  2  0  0  0  0
 20 23  1  0  0  0  0
 23 36  1  0  0  0  0
 23 37  1  0  0  0  0
M  END
>  <ID>
252

>  <IC50[uM](SPA)>
0.076

$$$$
