@<TRIPOS>MOLECULE
252
 37 39 0 0 0
SMALL
GASTEIGER
****
Structure written by MMmdl.
@<TRIPOS>ATOM
      1 O          27.6272    1.5392  -11.1203 O.3     1  LIG1       -0.3812
      2 C          27.1560    0.3040  -11.6456 C.3     1  LIG1        0.1456
      3 C          26.5217    0.3806  -13.0460 C.3     1  LIG1        0.2823
      4 C          25.0330    0.5955  -12.8364 C.3     1  LIG1        0.0428
      5 C          24.8086   -0.0746  -11.4954 C.ar    1  LIG1        0.0083
      6 C          26.0176   -0.2341  -10.8015 C.ar    1  LIG1        0.0197
      7 C          26.0221   -0.7646   -9.5003 C.ar    1  LIG1        0.1113
      8 C          24.8023   -1.0839   -8.8976 C.ar    1  LIG1       -0.0315
      9 C          23.6037   -0.9285   -9.5871 C.ar    1  LIG1       -0.0172
     10 C          23.6033   -0.4271  -10.8952 C.ar    1  LIG1        0.1322
     11 O          22.4845   -0.2768  -11.6823 O.3     1  LIG1       -0.4556
     12 C          21.2452   -0.5718  -11.1881 C.ar    1  LIG1        0.1324
     13 C          20.6754   -1.8264  -11.4017 C.ar    1  LIG1        0.0160
     14 C          19.4205   -2.1096  -10.8738 C.ar    1  LIG1        0.1281
     15 F          18.8538   -3.3152  -11.0677 F       1  LIG1       -0.2053
     16 C          18.7369   -1.1453  -10.1422 C.ar    1  LIG1       -0.0088
     17 C          19.2852    0.1248   -9.9603 C.ar    1  LIG1        0.0580
     18 C          18.5778    1.1653   -9.2362 C.1     1  LIG1        0.0994
     19 C          20.5515    0.3943  -10.4623 C.ar    1  LIG1       -0.0018
     20 S          27.5325   -1.0603   -8.5700 S.O2    1  LIG1        0.0563
     21 O          27.2148   -1.9861   -7.4807 O.2     1  LIG1       -0.1532
     22 O          28.6045   -1.3793   -9.5081 O.2     1  LIG1       -0.1532
     23 N          27.9346    0.4720   -7.8610 N.3     1  LIG1       -0.2035
     24 F          27.0654    1.3180  -13.8219 F       1  LIG1       -0.2021
     25 F          26.6664   -0.7984  -13.6558 F       1  LIG1       -0.2021
     26 N          18.0227    1.9941   -8.6522 N.1     1  LIG1       -0.1909
     27 H          28.3555    1.8653  -11.6765 H       1  LIG1        0.2105
     28 H          27.9781   -0.4091  -11.7063 H       1  LIG1        0.0704
     29 H          24.4242    0.1890  -13.6462 H       1  LIG1        0.0373
     30 H          24.8013    1.6590  -12.7701 H       1  LIG1        0.0373
     31 H          24.7765   -1.4822   -7.8947 H       1  LIG1        0.0638
     32 H          22.6850   -1.2325   -9.1075 H       1  LIG1        0.0655
     33 H          21.2121   -2.5898  -11.9431 H       1  LIG1        0.0683
     34 H          17.8013   -1.4259   -9.7039 H       1  LIG1        0.0659
     35 H          21.0089    1.3503  -10.2685 H       1  LIG1        0.0667
     36 H          27.2535    0.7935   -7.1729 H       1  LIG1        0.1442
     37 H          28.1763    1.1767   -8.5625 H       1  LIG1        0.1442
@<TRIPOS>BOND
     1     1     2    1
     2     1    27    1
     3     2     3    1
     4     2     6    1
     5     2    28    1
     6     3     4    1
     7     3    24    1
     8     3    25    1
     9     4     5    1
    10     4    29    1
    11     4    30    1
    12     5     6   ar
    13     5    10   ar
    14     6     7   ar
    15     7     8   ar
    16     7    20    1
    17     8     9   ar
    18     8    31    1
    19     9    10   ar
    20     9    32    1
    21    10    11    1
    22    11    12    1
    23    12    13   ar
    24    12    19   ar
    25    13    14   ar
    26    13    33    1
    27    14    15    1
    28    14    16   ar
    29    16    17   ar
    30    16    34    1
    31    17    18    1
    32    17    19   ar
    33    18    26    3
    34    19    35    1
    35    20    21    2
    36    20    22    2
    37    20    23    1
    38    23    36    1
    39    23    37    1
