@<TRIPOS>MOLECULE
254
 40 42 0 0 0
SMALL
GASTEIGER
****
Structure written by MMmdl.
@<TRIPOS>ATOM
      1 O          27.5290    1.5702  -11.4140 O.3     1  LIG1       -0.3812
      2 C          27.1452    0.2616  -11.7016 C.3     1  LIG1        0.1456
      3 C          26.5035    0.3509  -13.0777 C.3     1  LIG1        0.2823
      4 C          25.0278    0.6163  -12.8283 C.3     1  LIG1        0.0428
      5 C          24.8030   -0.0491  -11.4879 C.ar    1  LIG1        0.0083
      6 C          26.0132   -0.2224  -10.8071 C.ar    1  LIG1        0.0197
      7 C          26.0189   -0.7643   -9.5084 C.ar    1  LIG1        0.1115
      8 C          24.8007   -1.0836   -8.9010 C.ar    1  LIG1       -0.0315
      9 C          23.6021   -0.9380   -9.5968 C.ar    1  LIG1       -0.0172
     10 C          23.6010   -0.4271  -10.9002 C.ar    1  LIG1        0.1322
     11 O          22.4865   -0.2951  -11.6981 O.3     1  LIG1       -0.4556
     12 C          21.2462   -0.5782  -11.2011 C.ar    1  LIG1        0.1324
     13 C          20.6750   -1.8342  -11.4016 C.ar    1  LIG1        0.0160
     14 C          19.4231   -2.1130  -10.8638 C.ar    1  LIG1        0.1281
     15 F          18.8605   -3.3235  -11.0484 F       1  LIG1       -0.2053
     16 C          18.7415   -1.1394  -10.1398 C.ar    1  LIG1       -0.0088
     17 C          19.2943    0.1296   -9.9653 C.ar    1  LIG1        0.0580
     18 C          18.5740    1.1648   -9.2440 C.1     1  LIG1        0.0994
     19 C          20.5558    0.3964  -10.4841 C.ar    1  LIG1       -0.0018
     20 S          27.5377   -1.0695   -8.5948 S.O2    1  LIG1        0.0585
     21 O          27.2346   -2.0117   -7.5154 O.2     1  LIG1       -0.1530
     22 O          28.5882   -1.4038   -9.5540 O.2     1  LIG1       -0.1530
     23 N          27.9451    0.4615   -7.8301 N.3     1  LIG1       -0.1930
     24 F          27.0549    1.2897  -13.8570 F       1  LIG1       -0.2021
     25 F          26.6287   -0.8235  -13.6847 F       1  LIG1       -0.2021
     26 N          18.0045    1.9857   -8.6629 N.1     1  LIG1       -0.1909
     27 C          28.5002    1.5466   -8.6218 C.3     1  LIG1        0.0059
     28 H          28.4232    1.7635  -11.7473 H       1  LIG1        0.2105
     29 H          27.9845   -0.4335  -11.6910 H       1  LIG1        0.0704
     30 H          24.4120    0.1762  -13.6053 H       1  LIG1        0.0373
     31 H          24.8119    1.6889  -12.7872 H       1  LIG1        0.0373
     32 H          24.7814   -1.4584   -7.8884 H       1  LIG1        0.0638
     33 H          22.6799   -1.2369   -9.1253 H       1  LIG1        0.0655
     34 H          21.2052   -2.5946  -11.9528 H       1  LIG1        0.0683
     35 H          17.7929   -1.3901   -9.7095 H       1  LIG1        0.0659
     36 H          21.0125    1.3565  -10.3126 H       1  LIG1        0.0667
     37 H          28.3572    0.4001   -6.9030 H       1  LIG1        0.1477
     38 H          28.5305    2.4836   -8.0830 H       1  LIG1        0.0405
     39 H          27.7869    1.7713   -9.3533 H       1  LIG1        0.0405
     40 H          29.4618    1.2797   -9.0473 H       1  LIG1        0.0405
@<TRIPOS>BOND
     1     1     2    1
     2     1    28    1
     3     2     3    1
     4     2     6    1
     5     2    29    1
     6     3     4    1
     7     3    24    1
     8     3    25    1
     9     4     5    1
    10     4    30    1
    11     4    31    1
    12     5     6   ar
    13     5    10   ar
    14     6     7   ar
    15     7     8   ar
    16     7    20    1
    17     8     9   ar
    18     8    32    1
    19     9    10   ar
    20     9    33    1
    21    10    11    1
    22    11    12    1
    23    12    13   ar
    24    12    19   ar
    25    13    14   ar
    26    13    34    1
    27    14    15    1
    28    14    16   ar
    29    16    17   ar
    30    16    35    1
    31    17    18    1
    32    17    19   ar
    33    18    26    3
    34    19    36    1
    35    20    21    2
    36    20    22    2
    37    20    23    1
    38    23    27    1
    39    23    37    1
    40    27    38    1
    41    27    39    1
    42    27    40    1
