254
 OpenBabel02152110423D
Structure written by MMmdl.
 40 42  0  0  1  0  0  0  0  0999 V2000
   27.5290    1.5702  -11.4140 O   0  0  0  0  0  0  0  0  0  0  0  0
   27.1452    0.2616  -11.7016 C   0  0  2  0  0  0  0  0  0  0  0  0
   26.5035    0.3509  -13.0777 C   0  0  0  0  0  0  0  0  0  0  0  0
   25.0278    0.6163  -12.8283 C   0  0  0  0  0  0  0  0  0  0  0  0
   24.8030   -0.0491  -11.4879 C   0  0  0  0  0  0  0  0  0  0  0  0
   26.0132   -0.2224  -10.8071 C   0  0  0  0  0  0  0  0  0  0  0  0
   26.0189   -0.7643   -9.5084 C   0  0  0  0  0  0  0  0  0  0  0  0
   24.8007   -1.0836   -8.9010 C   0  0  0  0  0  0  0  0  0  0  0  0
   23.6021   -0.9380   -9.5968 C   0  0  0  0  0  0  0  0  0  0  0  0
   23.6010   -0.4271  -10.9002 C   0  0  0  0  0  0  0  0  0  0  0  0
   22.4865   -0.2951  -11.6981 O   0  0  0  0  0  0  0  0  0  0  0  0
   21.2462   -0.5782  -11.2011 C   0  0  0  0  0  0  0  0  0  0  0  0
   20.6750   -1.8342  -11.4016 C   0  0  0  0  0  0  0  0  0  0  0  0
   19.4231   -2.1130  -10.8638 C   0  0  0  0  0  0  0  0  0  0  0  0
   18.8605   -3.3235  -11.0484 F   0  0  0  0  0  0  0  0  0  0  0  0
   18.7415   -1.1394  -10.1398 C   0  0  0  0  0  0  0  0  0  0  0  0
   19.2943    0.1296   -9.9653 C   0  0  0  0  0  0  0  0  0  0  0  0
   18.5740    1.1648   -9.2440 C   0  0  0  0  0  0  0  0  0  0  0  0
   20.5558    0.3964  -10.4841 C   0  0  0  0  0  0  0  0  0  0  0  0
   27.5377   -1.0695   -8.5948 S   0  0  0  0  0  0  0  0  0  0  0  0
   27.2346   -2.0117   -7.5154 O   0  0  0  0  0  0  0  0  0  0  0  0
   28.5882   -1.4038   -9.5540 O   0  0  0  0  0  0  0  0  0  0  0  0
   27.9451    0.4615   -7.8301 N   0  0  0  0  0  0  0  0  0  0  0  0
   27.0549    1.2897  -13.8570 F   0  0  0  0  0  0  0  0  0  0  0  0
   26.6287   -0.8235  -13.6847 F   0  0  0  0  0  0  0  0  0  0  0  0
   18.0045    1.9857   -8.6629 N   0  0  0  0  0  0  0  0  0  0  0  0
   28.5002    1.5466   -8.6218 C   0  0  0  0  0  0  0  0  0  0  0  0
   28.4232    1.7635  -11.7473 H   0  0  0  0  0  0  0  0  0  0  0  0
   27.9845   -0.4335  -11.6910 H   0  0  0  0  0  0  0  0  0  0  0  0
   24.4120    0.1762  -13.6053 H   0  0  0  0  0  0  0  0  0  0  0  0
   24.8119    1.6889  -12.7872 H   0  0  0  0  0  0  0  0  0  0  0  0
   24.7814   -1.4584   -7.8884 H   0  0  0  0  0  0  0  0  0  0  0  0
   22.6799   -1.2369   -9.1253 H   0  0  0  0  0  0  0  0  0  0  0  0
   21.2052   -2.5946  -11.9528 H   0  0  0  0  0  0  0  0  0  0  0  0
   17.7929   -1.3901   -9.7095 H   0  0  0  0  0  0  0  0  0  0  0  0
   21.0125    1.3565  -10.3126 H   0  0  0  0  0  0  0  0  0  0  0  0
   28.3572    0.4001   -6.9030 H   0  0  0  0  0  0  0  0  0  0  0  0
   28.5305    2.4836   -8.0830 H   0  0  0  0  0  0  0  0  0  0  0  0
   27.7869    1.7713   -9.3533 H   0  0  0  0  0  0  0  0  0  0  0  0
   29.4618    1.2797   -9.0473 H   0  0  0  0  0  0  0  0  0  0  0  0
  1  2  1  0  0  0  0
  1 28  1  0  0  0  0
  2  3  1  0  0  0  0
  2  6  1  0  0  0  0
  2 29  1  1  0  0  0
  3  4  1  0  0  0  0
  3 24  1  0  0  0  0
  3 25  1  0  0  0  0
  4  5  1  0  0  0  0
  4 30  1  0  0  0  0
  4 31  1  0  0  0  0
  5  6  2  0  0  0  0
  5 10  1  0  0  0  0
  6  7  1  0  0  0  0
  7  8  2  0  0  0  0
  7 20  1  0  0  0  0
  8  9  1  0  0  0  0
  8 32  1  0  0  0  0
  9 10  2  0  0  0  0
  9 33  1  0  0  0  0
 10 11  1  0  0  0  0
 11 12  1  0  0  0  0
 12 13  2  0  0  0  0
 12 19  1  0  0  0  0
 13 14  1  0  0  0  0
 13 34  1  0  0  0  0
 14 15  1  0  0  0  0
 14 16  2  0  0  0  0
 16 17  1  0  0  0  0
 16 35  1  0  0  0  0
 17 18  1  0  0  0  0
 17 19  2  0  0  0  0
 18 26  3  0  0  0  0
 19 36  1  0  0  0  0
 20 21  2  0  0  0  0
 20 22  2  0  0  0  0
 20 23  1  0  0  0  0
 23 27  1  0  0  0  0
 23 37  1  0  0  0  0
 27 38  1  0  0  0  0
 27 39  1  0  0  0  0
 27 40  1  0  0  0  0
M  END
>  <ID>
254

>  <IC50[uM](SPA)>
0.1

$$$$
