256
 OpenBabel02152110423D
Structure written by MMmdl.
 36 38  0  0  1  0  0  0  0  0999 V2000
   27.6349    1.5390  -11.1120 O   0  0  0  0  0  0  0  0  0  0  0  0
   27.1610    0.3080  -11.6434 C   0  0  2  0  0  0  0  0  0  0  0  0
   26.5246    0.3818  -13.0435 C   0  0  0  0  0  0  0  0  0  0  0  0
   25.0349    0.5918  -12.8363 C   0  0  0  0  0  0  0  0  0  0  0  0
   24.8128   -0.0780  -11.4926 C   0  0  0  0  0  0  0  0  0  0  0  0
   26.0207   -0.2330  -10.7985 C   0  0  0  0  0  0  0  0  0  0  0  0
   26.0265   -0.7616   -9.4949 C   0  0  0  0  0  0  0  0  0  0  0  0
   24.8081   -1.0797   -8.8934 C   0  0  0  0  0  0  0  0  0  0  0  0
   23.6071   -0.9271   -9.5818 C   0  0  0  0  0  0  0  0  0  0  0  0
   23.6051   -0.4285  -10.8927 C   0  0  0  0  0  0  0  0  0  0  0  0
   22.4843   -0.2729  -11.6739 O   0  0  0  0  0  0  0  0  0  0  0  0
   21.2426   -0.5644  -11.1778 C   0  0  0  0  0  0  0  0  0  0  0  0
   20.5460    0.3947  -10.4507 C   0  0  0  0  0  0  0  0  0  0  0  0
   19.2853    0.1164   -9.9393 C   0  0  0  0  0  0  0  0  0  0  0  0
   18.6069    1.0601   -9.2520 F   0  0  0  0  0  0  0  0  0  0  0  0
   18.7375   -1.1466  -10.1378 C   0  0  0  0  0  0  0  0  0  0  0  0
   19.4161   -2.1029  -10.8774 C   0  0  0  0  0  0  0  0  0  0  0  0
   18.8465   -3.3080  -11.0783 F   0  0  0  0  0  0  0  0  0  0  0  0
   20.6729   -1.8221  -11.4011 C   0  0  0  0  0  0  0  0  0  0  0  0
   27.5432   -1.0730   -8.5723 S   0  0  0  0  0  0  0  0  0  0  0  0
   28.5992   -1.4076   -9.5147 O   0  0  0  0  0  0  0  0  0  0  0  0
   27.2219   -1.9934   -7.4762 O   0  0  0  0  0  0  0  0  0  0  0  0
   27.9698    0.4559   -7.8597 N   0  0  0  0  0  0  0  0  0  0  0  0
   27.0650    1.3224  -13.8196 F   0  0  0  0  0  0  0  0  0  0  0  0
   26.6750   -0.7960  -13.6529 F   0  0  0  0  0  0  0  0  0  0  0  0
   28.3650    1.8699  -11.6666 H   0  0  0  0  0  0  0  0  0  0  0  0
   27.9821   -0.4047  -11.7081 H   0  0  0  0  0  0  0  0  0  0  0  0
   24.7980    1.6524  -12.7661 H   0  0  0  0  0  0  0  0  0  0  0  0
   24.4281    0.1890  -13.6510 H   0  0  0  0  0  0  0  0  0  0  0  0
   24.7791   -1.4795   -7.8909 H   0  0  0  0  0  0  0  0  0  0  0  0
   22.6905   -1.2302   -9.1017 H   0  0  0  0  0  0  0  0  0  0  0  0
   20.9792    1.3620  -10.2594 H   0  0  0  0  0  0  0  0  0  0  0  0
   17.8013   -1.4072   -9.6924 H   0  0  0  0  0  0  0  0  0  0  0  0
   21.2096   -2.5824  -11.9444 H   0  0  0  0  0  0  0  0  0  0  0  0
   27.3130    0.7844   -7.1551 H   0  0  0  0  0  0  0  0  0  0  0  0
   28.2244    1.1712   -8.5468 H   0  0  0  0  0  0  0  0  0  0  0  0
  1  2  1  0  0  0  0
  1 26  1  0  0  0  0
  2  3  1  0  0  0  0
  2  6  1  0  0  0  0
  2 27  1  6  0  0  0
  3  4  1  0  0  0  0
  3 24  1  0  0  0  0
  3 25  1  0  0  0  0
  4  5  1  0  0  0  0
  4 28  1  0  0  0  0
  4 29  1  0  0  0  0
  5  6  2  0  0  0  0
  5 10  1  0  0  0  0
  6  7  1  0  0  0  0
  7  8  2  0  0  0  0
  7 20  1  0  0  0  0
  8  9  1  0  0  0  0
  8 30  1  0  0  0  0
  9 10  2  0  0  0  0
  9 31  1  0  0  0  0
 10 11  1  0  0  0  0
 11 12  1  0  0  0  0
 12 13  2  0  0  0  0
 12 19  1  0  0  0  0
 13 14  1  0  0  0  0
 13 32  1  0  0  0  0
 14 15  1  0  0  0  0
 14 16  2  0  0  0  0
 16 17  1  0  0  0  0
 16 33  1  0  0  0  0
 17 18  1  0  0  0  0
 17 19  2  0  0  0  0
 19 34  1  0  0  0  0
 20 21  2  0  0  0  0
 20 22  2  0  0  0  0
 20 23  1  0  0  0  0
 23 35  1  0  0  0  0
 23 36  1  0  0  0  0
M  END
>  <ID>
256

>  <IC50[uM](SPA)>
0.015

$$$$
