@<TRIPOS>MOLECULE
256
 36 38 0 0 0
SMALL
GASTEIGER
****
Structure written by MMmdl.
@<TRIPOS>ATOM
      1 O          27.6349    1.5390  -11.1120 O.3     1  LIG1       -0.3812
      2 C          27.1610    0.3080  -11.6434 C.3     1  LIG1        0.1456
      3 C          26.5246    0.3818  -13.0435 C.3     1  LIG1        0.2823
      4 C          25.0349    0.5918  -12.8363 C.3     1  LIG1        0.0428
      5 C          24.8128   -0.0780  -11.4926 C.ar    1  LIG1        0.0083
      6 C          26.0207   -0.2330  -10.7985 C.ar    1  LIG1        0.0197
      7 C          26.0265   -0.7616   -9.4949 C.ar    1  LIG1        0.1113
      8 C          24.8081   -1.0797   -8.8934 C.ar    1  LIG1       -0.0315
      9 C          23.6071   -0.9271   -9.5818 C.ar    1  LIG1       -0.0172
     10 C          23.6051   -0.4285  -10.8927 C.ar    1  LIG1        0.1322
     11 O          22.4843   -0.2729  -11.6739 O.3     1  LIG1       -0.4556
     12 C          21.2426   -0.5644  -11.1778 C.ar    1  LIG1        0.1339
     13 C          20.5460    0.3947  -10.4507 C.ar    1  LIG1        0.0161
     14 C          19.2853    0.1164   -9.9393 C.ar    1  LIG1        0.1296
     15 F          18.6069    1.0601   -9.2520 F       1  LIG1       -0.2053
     16 C          18.7375   -1.1466  -10.1378 C.ar    1  LIG1        0.0090
     17 C          19.4161   -2.1029  -10.8774 C.ar    1  LIG1        0.1296
     18 F          18.8465   -3.3080  -11.0783 F       1  LIG1       -0.2053
     19 C          20.6729   -1.8221  -11.4011 C.ar    1  LIG1        0.0161
     20 S          27.5432   -1.0730   -8.5723 S.O2    1  LIG1        0.0563
     21 O          28.5992   -1.4076   -9.5147 O.2     1  LIG1       -0.1532
     22 O          27.2219   -1.9934   -7.4762 O.2     1  LIG1       -0.1532
     23 N          27.9698    0.4559   -7.8597 N.3     1  LIG1       -0.2035
     24 F          27.0650    1.3224  -13.8196 F       1  LIG1       -0.2021
     25 F          26.6750   -0.7960  -13.6529 F       1  LIG1       -0.2021
     26 H          28.3650    1.8699  -11.6666 H       1  LIG1        0.2105
     27 H          27.9821   -0.4047  -11.7081 H       1  LIG1        0.0704
     28 H          24.7980    1.6524  -12.7661 H       1  LIG1        0.0373
     29 H          24.4281    0.1890  -13.6510 H       1  LIG1        0.0373
     30 H          24.7791   -1.4795   -7.8909 H       1  LIG1        0.0638
     31 H          22.6905   -1.2302   -9.1017 H       1  LIG1        0.0655
     32 H          20.9792    1.3620  -10.2594 H       1  LIG1        0.0683
     33 H          17.8013   -1.4072   -9.6924 H       1  LIG1        0.0675
     34 H          21.2096   -2.5824  -11.9444 H       1  LIG1        0.0683
     35 H          27.3130    0.7844   -7.1551 H       1  LIG1        0.1442
     36 H          28.2244    1.1712   -8.5468 H       1  LIG1        0.1442
@<TRIPOS>BOND
     1     1     2    1
     2     1    26    1
     3     2     3    1
     4     2     6    1
     5     2    27    1
     6     3     4    1
     7     3    24    1
     8     3    25    1
     9     4     5    1
    10     4    28    1
    11     4    29    1
    12     5     6   ar
    13     5    10   ar
    14     6     7   ar
    15     7     8   ar
    16     7    20    1
    17     8     9   ar
    18     8    30    1
    19     9    10   ar
    20     9    31    1
    21    10    11    1
    22    11    12    1
    23    12    13   ar
    24    12    19   ar
    25    13    14   ar
    26    13    32    1
    27    14    15    1
    28    14    16   ar
    29    16    17   ar
    30    16    33    1
    31    17    18    1
    32    17    19   ar
    33    19    34    1
    34    20    21    2
    35    20    22    2
    36    20    23    1
    37    23    35    1
    38    23    36    1
