@<TRIPOS>MOLECULE
266
 40 43 0 0 0
SMALL
GASTEIGER
****
Structure written by MMmdl.
@<TRIPOS>ATOM
      1 O          27.8850    0.9567  -11.2360 O.3     1  LIG1       -0.3812
      2 C          26.9261    0.0753  -11.8170 C.3     1  LIG1        0.1455
      3 C          26.2094    0.6442  -13.0561 C.3     1  LIG1        0.2823
      4 C          24.7392    0.3196  -12.9441 C.3     1  LIG1        0.0428
      5 C          24.5470   -0.0317  -11.5054 C.ar    1  LIG1        0.0082
      6 C          25.7726   -0.2517  -10.8650 C.ar    1  LIG1        0.0185
      7 C          25.7777   -0.7392   -9.5446 C.ar    1  LIG1        0.1038
      8 C          24.5645   -0.9350   -8.8805 C.ar    1  LIG1       -0.0327
      9 C          23.3575   -0.7307   -9.5431 C.ar    1  LIG1       -0.0172
     10 C          23.3449   -0.3000  -10.8665 C.ar    1  LIG1        0.1323
     11 O          22.1962   -0.0469  -11.5824 O.3     1  LIG1       -0.4550
     12 C          21.0227   -0.6665  -11.2348 C.ar    1  LIG1        0.1393
     13 C          20.7734   -2.0189  -11.4693 C.ar    1  LIG1       -0.0158
     14 C          19.5565   -2.5922  -11.1030 C.ar    1  LIG1       -0.0208
     15 C          18.5893   -1.8651  -10.4156 C.ar    1  LIG1        0.1489
     16 C          18.8672   -0.5266  -10.1509 C.ar    1  LIG1        0.1043
     17 C          20.0493    0.0994  -10.5813 C.ar    1  LIG1        0.0645
     18 S          27.2967   -1.1713   -8.6869 S.O2    1  LIG1        0.0911
     19 O          28.2927   -1.4686   -9.7151 O.2     1  LIG1       -0.1612
     20 O          26.9743   -2.2137   -7.7071 O.2     1  LIG1       -0.1612
     21 C          27.7762    0.4223   -7.7641 C.3     1  LIG1        0.5261
     22 F          26.6880    0.1745  -14.2084 F       1  LIG1       -0.2021
     23 F          26.3100    1.9665  -13.0637 F       1  LIG1       -0.2021
     24 F          27.0858    0.4659   -6.6244 F       1  LIG1       -0.1500
     25 F          29.0853    0.3799   -7.5200 F       1  LIG1       -0.1500
     26 F          27.4854    1.4761   -8.5193 F       1  LIG1       -0.1500
     27 F          17.4363   -2.4330  -10.0129 F       1  LIG1       -0.2033
     28 C          19.8832    1.4504  -10.1680 C.ar    1  LIG1        0.0605
     29 N          18.7801    1.6341   -9.4994 N.ar    1  LIG1       -0.1810
     30 N          18.1820    0.4453   -9.4619 N.ar    1  LIG1       -0.2740
     31 H          28.4717    1.3190  -11.9120 H       1  LIG1        0.2105
     32 H          27.4183   -0.8521  -12.0998 H       1  LIG1        0.0704
     33 H          24.0911    1.1044  -13.3289 H       1  LIG1        0.0373
     34 H          24.5073   -0.5967  -13.4710 H       1  LIG1        0.0373
     35 H          24.5427   -1.2805   -7.8640 H       1  LIG1        0.0638
     36 H          22.4170   -0.9153   -9.0626 H       1  LIG1        0.0655
     37 H          21.5226   -2.6299  -11.9472 H       1  LIG1        0.0655
     38 H          19.3705   -3.6281  -11.3315 H       1  LIG1        0.0648
     39 H          20.5664    2.2737  -10.2644 H       1  LIG1        0.0855
     40 H          17.2735    0.3439   -9.0291 H       1  LIG1        0.1890
@<TRIPOS>BOND
     1     1     2    1
     2     1    31    1
     3     2     3    1
     4     2     6    1
     5     2    32    1
     6     3     4    1
     7     3    22    1
     8     3    23    1
     9     4     5    1
    10     4    33    1
    11     4    34    1
    12     5     6   ar
    13     5    10   ar
    14     6     7   ar
    15     7     8   ar
    16     7    18    1
    17     8     9   ar
    18     8    35    1
    19     9    10   ar
    20     9    36    1
    21    10    11    1
    22    11    12    1
    23    12    13   ar
    24    12    17   ar
    25    13    14   ar
    26    13    37    1
    27    14    15   ar
    28    14    38    1
    29    15    16   ar
    30    15    27    1
    31    16    17   ar
    32    16    30   ar
    33    17    28   ar
    34    18    19    2
    35    18    20    2
    36    18    21    1
    37    21    24    1
    38    21    25    1
    39    21    26    1
    40    28    29   ar
    41    28    39    1
    42    29    30   ar
    43    30    40    1
