289
 OpenBabel02152110423D
Structure written by MMmdl.
 38 40  0  0  1  0  0  0  0  0999 V2000
   27.9755    1.1669  -10.8324 O   0  0  0  0  0  0  0  0  0  0  0  0
   27.2390    0.1841  -11.5554 C   0  0  2  0  0  0  0  0  0  0  0  0
   26.5477    0.7660  -12.7999 C   0  0  1  0  0  0  0  0  0  0  0  0
   25.2049    0.0635  -12.9045 C   0  0  1  0  0  0  0  0  0  0  0  0
   24.8937   -0.3001  -11.4771 C   0  0  0  0  0  0  0  0  0  0  0  0
   26.0788   -0.3727  -10.7381 C   0  0  0  0  0  0  0  0  0  0  0  0
   26.0458   -0.8976   -9.4395 C   0  0  0  0  0  0  0  0  0  0  0  0
   24.8156   -1.2035   -8.8587 C   0  0  0  0  0  0  0  0  0  0  0  0
   23.6292   -1.0361   -9.5643 C   0  0  0  0  0  0  0  0  0  0  0  0
   23.6659   -0.6025  -10.8934 C   0  0  0  0  0  0  0  0  0  0  0  0
   22.5632   -0.4733  -11.7055 O   0  0  0  0  0  0  0  0  0  0  0  0
   21.3077   -0.7045  -11.2158 C   0  0  0  0  0  0  0  0  0  0  0  0
   20.6819   -1.9238  -11.4625 C   0  0  0  0  0  0  0  0  0  0  0  0
   19.4032   -2.1541  -10.9696 C   0  0  0  0  0  0  0  0  0  0  0  0
   18.7805   -3.3217  -11.2165 F   0  0  0  0  0  0  0  0  0  0  0  0
   18.7532   -1.1722  -10.2314 C   0  0  0  0  0  0  0  0  0  0  0  0
   19.3626    0.0638  -10.0081 C   0  0  0  0  0  0  0  0  0  0  0  0
   18.6843    1.1242   -9.2858 C   0  0  0  0  0  0  0  0  0  0  0  0
   20.6520    0.2828  -10.4822 C   0  0  0  0  0  0  0  0  0  0  0  0
   27.5268   -1.2129   -8.4905 S   0  0  0  0  0  0  0  0  0  0  0  0
   27.2281   -2.2833   -7.5336 O   0  0  0  0  0  0  0  0  0  0  0  0
   28.6527   -1.3615   -9.4143 O   0  0  0  0  0  0  0  0  0  0  0  0
   26.2783    2.0422  -12.5491 F   0  0  0  0  0  0  0  0  0  0  0  0
   18.1517    1.9670   -8.7031 N   0  0  0  0  0  0  0  0  0  0  0  0
   24.3119    0.8426  -13.5117 F   0  0  0  0  0  0  0  0  0  0  0  0
   27.7464    0.3832   -7.5445 C   0  0  0  0  0  0  0  0  0  0  0  0
   28.6278    1.5780  -11.4159 H   0  0  0  0  0  0  0  0  0  0  0  0
   27.8865   -0.6394  -11.8578 H   0  0  0  0  0  0  0  0  0  0  0  0
   27.1456    0.7501  -13.7119 H   0  0  0  0  0  0  0  0  0  0  0  0
   25.2774   -0.8290  -13.5267 H   0  0  0  0  0  0  0  0  0  0  0  0
   24.7771   -1.6047   -7.8636 H   0  0  0  0  0  0  0  0  0  0  0  0
   22.6940   -1.2991   -9.0913 H   0  0  0  0  0  0  0  0  0  0  0  0
   21.1919   -2.6924  -12.0201 H   0  0  0  0  0  0  0  0  0  0  0  0
   17.7867   -1.4057   -9.8300 H   0  0  0  0  0  0  0  0  0  0  0  0
   21.1501    1.2108  -10.2637 H   0  0  0  0  0  0  0  0  0  0  0  0
   28.7144    0.3301   -7.0642 H   0  0  0  0  0  0  0  0  0  0  0  0
   26.9498    0.4724   -6.8102 H   0  0  0  0  0  0  0  0  0  0  0  0
   27.7216    1.2218   -8.2383 H   0  0  0  0  0  0  0  0  0  0  0  0
  1  2  1  0  0  0  0
  1 27  1  0  0  0  0
  2  3  1  0  0  0  0
  2  6  1  0  0  0  0
  2 28  1  6  0  0  0
  3  4  1  0  0  0  0
  3 23  1  0  0  0  0
  3 29  1  6  0  0  0
  4  5  1  0  0  0  0
  4 25  1  0  0  0  0
  4 30  1  6  0  0  0
  5  6  2  0  0  0  0
  5 10  1  0  0  0  0
  6  7  1  0  0  0  0
  7  8  2  0  0  0  0
  7 20  1  0  0  0  0
  8  9  1  0  0  0  0
  8 31  1  0  0  0  0
  9 10  2  0  0  0  0
  9 32  1  0  0  0  0
 10 11  1  0  0  0  0
 11 12  1  0  0  0  0
 12 13  2  0  0  0  0
 12 19  1  0  0  0  0
 13 14  1  0  0  0  0
 13 33  1  0  0  0  0
 14 15  1  0  0  0  0
 14 16  2  0  0  0  0
 16 17  1  0  0  0  0
 16 34  1  0  0  0  0
 17 18  1  0  0  0  0
 17 19  2  0  0  0  0
 18 24  3  0  0  0  0
 19 35  1  0  0  0  0
 20 21  2  0  0  0  0
 20 22  2  0  0  0  0
 20 26  1  0  0  0  0
 26 36  1  0  0  0  0
 26 37  1  0  0  0  0
 26 38  1  0  0  0  0
M  END
>  <ID>
289

>  <IC50[uM](SPA)>
0.01

$$$$
