@<TRIPOS>MOLECULE
289
 38 40 0 0 0
SMALL
GASTEIGER
****
Structure written by MMmdl.
@<TRIPOS>ATOM
      1 O          27.9755    1.1669  -10.8324 O.3     1  LIG1       -0.3841
      2 C          27.2390    0.1841  -11.5554 C.3     1  LIG1        0.1164
      3 C          26.5477    0.7660  -12.7999 C.3     1  LIG1        0.1658
      4 C          25.2049    0.0635  -12.9045 C.3     1  LIG1        0.1633
      5 C          24.8937   -0.3001  -11.4771 C.ar    1  LIG1        0.0388
      6 C          26.0788   -0.3727  -10.7381 C.ar    1  LIG1        0.0180
      7 C          26.0458   -0.8976   -9.4395 C.ar    1  LIG1        0.0941
      8 C          24.8156   -1.2035   -8.8587 C.ar    1  LIG1       -0.0330
      9 C          23.6292   -1.0361   -9.5643 C.ar    1  LIG1       -0.0171
     10 C          23.6659   -0.6025  -10.8934 C.ar    1  LIG1        0.1349
     11 O          22.5632   -0.4733  -11.7055 O.3     1  LIG1       -0.4555
     12 C          21.3077   -0.7045  -11.2158 C.ar    1  LIG1        0.1324
     13 C          20.6819   -1.9238  -11.4625 C.ar    1  LIG1        0.0160
     14 C          19.4032   -2.1541  -10.9696 C.ar    1  LIG1        0.1281
     15 F          18.7805   -3.3217  -11.2165 F       1  LIG1       -0.2053
     16 C          18.7532   -1.1722  -10.2314 C.ar    1  LIG1       -0.0088
     17 C          19.3626    0.0638  -10.0081 C.ar    1  LIG1        0.0580
     18 C          18.6843    1.1242   -9.2858 C.1     1  LIG1        0.0994
     19 C          20.6520    0.2828  -10.4822 C.ar    1  LIG1       -0.0018
     20 S          27.5268   -1.2129   -8.4905 S.O2    1  LIG1       -0.0055
     21 O          27.2281   -2.2833   -7.5336 O.2     1  LIG1       -0.1696
     22 O          28.6527   -1.3615   -9.4143 O.2     1  LIG1       -0.1696
     23 F          26.2783    2.0422  -12.5491 F       1  LIG1       -0.2391
     24 N          18.1517    1.9670   -8.7031 N.1     1  LIG1       -0.1909
     25 F          24.3119    0.8426  -13.5117 F       1  LIG1       -0.2372
     26 C          27.7464    0.3832   -7.5445 C.3     1  LIG1        0.0596
     27 H          28.6278    1.5780  -11.4159 H       1  LIG1        0.2104
     28 H          27.8865   -0.6394  -11.8578 H       1  LIG1        0.0674
     29 H          27.1456    0.7501  -13.7119 H       1  LIG1        0.0714
     30 H          25.2774   -0.8290  -13.5267 H       1  LIG1        0.0734
     31 H          24.7771   -1.6047   -7.8636 H       1  LIG1        0.0638
     32 H          22.6940   -1.2991   -9.0913 H       1  LIG1        0.0655
     33 H          21.1919   -2.6924  -12.0201 H       1  LIG1        0.0683
     34 H          17.7867   -1.4057   -9.8300 H       1  LIG1        0.0659
     35 H          21.1501    1.2108  -10.2637 H       1  LIG1        0.0667
     36 H          28.7144    0.3301   -7.0642 H       1  LIG1        0.0468
     37 H          26.9498    0.4724   -6.8102 H       1  LIG1        0.0468
     38 H          27.7216    1.2218   -8.2383 H       1  LIG1        0.0468
@<TRIPOS>BOND
     1     1     2    1
     2     1    27    1
     3     2     3    1
     4     2     6    1
     5     2    28    1
     6     3     4    1
     7     3    23    1
     8     3    29    1
     9     4     5    1
    10     4    25    1
    11     4    30    1
    12     5     6   ar
    13     5    10   ar
    14     6     7   ar
    15     7     8   ar
    16     7    20    1
    17     8     9   ar
    18     8    31    1
    19     9    10   ar
    20     9    32    1
    21    10    11    1
    22    11    12    1
    23    12    13   ar
    24    12    19   ar
    25    13    14   ar
    26    13    33    1
    27    14    15    1
    28    14    16   ar
    29    16    17   ar
    30    16    34    1
    31    17    18    1
    32    17    19   ar
    33    18    24    3
    34    19    35    1
    35    20    21    2
    36    20    22    2
    37    20    26    1
    38    26    36    1
    39    26    37    1
    40    26    38    1
