290
 OpenBabel02152110423D
Structure written by MMmdl.
 39 41  0  0  1  0  0  0  0  0999 V2000
   27.5740    1.5625  -11.2291 N   0  0  0  0  0  0  0  0  0  0  0  0
   27.1541    0.2576  -11.6910 C   0  0  2  0  0  0  0  0  0  0  0  0
   26.5095    0.3461  -13.0777 C   0  0  0  0  0  0  0  0  0  0  0  0
   25.0290    0.5954  -12.8450 C   0  0  0  0  0  0  0  0  0  0  0  0
   24.8037   -0.0602  -11.4984 C   0  0  0  0  0  0  0  0  0  0  0  0
   26.0092   -0.2240  -10.8090 C   0  0  0  0  0  0  0  0  0  0  0  0
   26.0109   -0.7777   -9.5207 C   0  0  0  0  0  0  0  0  0  0  0  0
   24.7959   -1.0889   -8.9045 C   0  0  0  0  0  0  0  0  0  0  0  0
   23.5992   -0.9223   -9.5915 C   0  0  0  0  0  0  0  0  0  0  0  0
   23.5984   -0.4194  -10.8961 C   0  0  0  0  0  0  0  0  0  0  0  0
   22.4824   -0.2843  -11.6898 O   0  0  0  0  0  0  0  0  0  0  0  0
   21.2448   -0.5748  -11.1956 C   0  0  0  0  0  0  0  0  0  0  0  0
   20.6740   -1.8289  -11.4024 C   0  0  0  0  0  0  0  0  0  0  0  0
   19.4243   -2.1094  -10.8700 C   0  0  0  0  0  0  0  0  0  0  0  0
   18.8514   -3.3146  -11.0611 F   0  0  0  0  0  0  0  0  0  0  0  0
   18.7414   -1.1444  -10.1434 C   0  0  0  0  0  0  0  0  0  0  0  0
   19.2871    0.1244   -9.9694 C   0  0  0  0  0  0  0  0  0  0  0  0
   18.5764    1.1678   -9.2409 C   0  0  0  0  0  0  0  0  0  0  0  0
   20.5463    0.3914  -10.4687 C   0  0  0  0  0  0  0  0  0  0  0  0
   27.5079   -1.0807   -8.5946 S   0  0  0  0  0  0  0  0  0  0  0  0
   28.5661   -1.4034   -9.5526 O   0  0  0  0  0  0  0  0  0  0  0  0
   27.2082   -2.0475   -7.5362 O   0  0  0  0  0  0  0  0  0  0  0  0
   27.8937    0.5866   -7.7878 C   0  0  0  0  0  0  0  0  0  0  0  0
   27.0532    1.2780  -13.8693 F   0  0  0  0  0  0  0  0  0  0  0  0
   26.6434   -0.8310  -13.6723 F   0  0  0  0  0  0  0  0  0  0  0  0
   18.0158    1.9913   -8.6668 N   0  0  0  0  0  0  0  0  0  0  0  0
   29.1657    0.5265   -7.4607 F   0  0  0  0  0  0  0  0  0  0  0  0
   27.7528    1.6123   -8.6183 F   0  0  0  0  0  0  0  0  0  0  0  0
   27.1110    0.7689   -6.7327 F   0  0  0  0  0  0  0  0  0  0  0  0
   28.0811    1.4599  -10.3770 H   0  0  0  0  0  0  0  0  0  0  0  0
   28.2888    1.9365  -11.8603 H   0  0  0  0  0  0  0  0  0  0  0  0
   28.0018   -0.4423  -11.7297 H   0  0  0  0  0  0  0  0  0  0  0  0
   24.4058    0.1882  -13.6467 H   0  0  0  0  0  0  0  0  0  0  0  0
   24.8104    1.6599  -12.7803 H   0  0  0  0  0  0  0  0  0  0  0  0
   24.7747   -1.4836   -7.9003 H   0  0  0  0  0  0  0  0  0  0  0  0
   22.6851   -1.2365   -9.1107 H   0  0  0  0  0  0  0  0  0  0  0  0
   21.2092   -2.5946  -11.9437 H   0  0  0  0  0  0  0  0  0  0  0  0
   17.8072   -1.4207   -9.7067 H   0  0  0  0  0  0  0  0  0  0  0  0
   21.0053    1.3469  -10.2638 H   0  0  0  0  0  0  0  0  0  0  0  0
  1  2  1  0  0  0  0
  1 30  1  0  0  0  0
  1 31  1  0  0  0  0
  2  3  1  0  0  0  0
  2  6  1  0  0  0  0
  2 32  1  1  0  0  0
  3  4  1  0  0  0  0
  3 24  1  0  0  0  0
  3 25  1  0  0  0  0
  4  5  1  0  0  0  0
  4 33  1  0  0  0  0
  4 34  1  0  0  0  0
  5  6  2  0  0  0  0
  5 10  1  0  0  0  0
  6  7  1  0  0  0  0
  7  8  2  0  0  0  0
  7 20  1  0  0  0  0
  8  9  1  0  0  0  0
  8 35  1  0  0  0  0
  9 10  2  0  0  0  0
  9 36  1  0  0  0  0
 10 11  1  0  0  0  0
 11 12  1  0  0  0  0
 12 13  2  0  0  0  0
 12 19  1  0  0  0  0
 13 14  1  0  0  0  0
 13 37  1  0  0  0  0
 14 15  1  0  0  0  0
 14 16  2  0  0  0  0
 16 17  1  0  0  0  0
 16 38  1  0  0  0  0
 17 18  1  0  0  0  0
 17 19  2  0  0  0  0
 18 26  3  0  0  0  0
 19 39  1  0  0  0  0
 20 21  2  0  0  0  0
 20 22  2  0  0  0  0
 20 23  1  0  0  0  0
 23 27  1  0  0  0  0
 23 28  1  0  0  0  0
 23 29  1  0  0  0  0
M  END
>  <ID>
290

>  <IC50[uM](SPA)>
0.018

$$$$
