30
 OpenBabel02152110423D
Structure written by MMmdl.
 31 32  0  0  1  0  0  0  0  0999 V2000
   27.5485    0.3136  -11.5391 Cl  0  0  0  0  0  0  0  0  0  0  0  0
   24.8372   -0.0289  -11.4983 C   0  0  0  0  0  0  0  0  0  0  0  0
   26.0452   -0.2007  -10.8100 C   0  0  0  0  0  0  0  0  0  0  0  0
   26.0339   -0.7721   -9.5247 C   0  0  0  0  0  0  0  0  0  0  0  0
   24.8128   -1.0812   -8.9236 C   0  0  0  0  0  0  0  0  0  0  0  0
   23.6194   -0.9276   -9.6191 C   0  0  0  0  0  0  0  0  0  0  0  0
   23.6217   -0.4318  -10.9248 C   0  0  0  0  0  0  0  0  0  0  0  0
   22.4810   -0.3037  -11.6892 O   0  0  0  0  0  0  0  0  0  0  0  0
   21.2399   -0.5885  -11.1701 C   0  0  0  0  0  0  0  0  0  0  0  0
   20.6662   -1.8374  -11.3902 C   0  0  0  0  0  0  0  0  0  0  0  0
   19.4091   -2.1170  -10.8684 C   0  0  0  0  0  0  0  0  0  0  0  0
   18.8393   -3.3237  -11.0680 F   0  0  0  0  0  0  0  0  0  0  0  0
   18.7264   -1.1511  -10.1393 C   0  0  0  0  0  0  0  0  0  0  0  0
   19.2825    0.1244   -9.9582 C   0  0  0  0  0  0  0  0  0  0  0  0
   18.5614    1.1690   -9.2489 C   0  0  0  0  0  0  0  0  0  0  0  0
   20.5500    0.3803  -10.4464 C   0  0  0  0  0  0  0  0  0  0  0  0
   27.5166   -1.0965   -8.5685 S   0  0  0  0  0  0  0  0  0  0  0  0
   27.1757   -2.0254   -7.4877 O   0  0  0  0  0  0  0  0  0  0  0  0
   28.5973   -1.4633   -9.4875 O   0  0  0  0  0  0  0  0  0  0  0  0
   27.8897    0.6007   -7.8518 C   0  0  0  0  0  0  0  0  0  0  0  0
   27.7354    1.5229   -8.8032 F   0  0  0  0  0  0  0  0  0  0  0  0
   27.0123    0.7944   -6.8835 F   0  0  0  0  0  0  0  0  0  0  0  0
   24.8330    0.6084  -12.8132 C   0  0  0  0  0  0  0  0  0  0  0  0
   24.8420    1.1182  -13.8525 N   0  0  0  0  0  0  0  0  0  0  0  0
   18.0078    2.0075   -8.6709 N   0  0  0  0  0  0  0  0  0  0  0  0
   24.7836   -1.4731   -7.9183 H   0  0  0  0  0  0  0  0  0  0  0  0
   22.6985   -1.2282   -9.1371 H   0  0  0  0  0  0  0  0  0  0  0  0
   21.1987   -2.5965  -11.9433 H   0  0  0  0  0  0  0  0  0  0  0  0
   17.7864   -1.4317   -9.6991 H   0  0  0  0  0  0  0  0  0  0  0  0
   21.0075    1.3441  -10.2726 H   0  0  0  0  0  0  0  0  0  0  0  0
   28.8873    0.6401   -7.4156 H   0  0  0  0  0  0  0  0  0  0  0  0
  1  3  1  0  0  0  0
  2  3  2  0  0  0  0
  2  7  1  0  0  0  0
  2 23  1  0  0  0  0
  3  4  1  0  0  0  0
  4  5  2  0  0  0  0
  4 17  1  0  0  0  0
  5  6  1  0  0  0  0
  5 26  1  0  0  0  0
  6  7  2  0  0  0  0
  6 27  1  0  0  0  0
  7  8  1  0  0  0  0
  8  9  1  0  0  0  0
  9 10  2  0  0  0  0
  9 16  1  0  0  0  0
 10 11  1  0  0  0  0
 10 28  1  0  0  0  0
 11 12  1  0  0  0  0
 11 13  2  0  0  0  0
 13 14  1  0  0  0  0
 13 29  1  0  0  0  0
 14 15  1  0  0  0  0
 14 16  2  0  0  0  0
 15 25  3  0  0  0  0
 16 30  1  0  0  0  0
 17 18  2  0  0  0  0
 17 19  2  0  0  0  0
 17 20  1  0  0  0  0
 20 21  1  0  0  0  0
 20 22  1  0  0  0  0
 20 31  1  0  0  0  0
 23 24  3  0  0  0  0
M  END
>  <ID>
30

>  <IC50[uM](SPA)>
0.018

$$$$
