31
 OpenBabel02152110423D
Structure written by MMmdl.
 34 35  0  0  1  0  0  0  0  0999 V2000
   27.3687    0.2213  -11.4876 C   0  0  0  0  0  0  0  0  0  0  0  0
   24.8311   -0.0329  -11.4879 C   0  0  0  0  0  0  0  0  0  0  0  0
   26.0513   -0.2060  -10.8090 C   0  0  0  0  0  0  0  0  0  0  0  0
   26.0346   -0.7690   -9.5108 C   0  0  0  0  0  0  0  0  0  0  0  0
   24.8065   -1.0848   -8.9114 C   0  0  0  0  0  0  0  0  0  0  0  0
   23.6126   -0.9312   -9.6030 C   0  0  0  0  0  0  0  0  0  0  0  0
   23.6048   -0.4328  -10.9121 C   0  0  0  0  0  0  0  0  0  0  0  0
   22.4609   -0.3198  -11.6757 O   0  0  0  0  0  0  0  0  0  0  0  0
   21.2233   -0.5921  -11.1719 C   0  0  0  0  0  0  0  0  0  0  0  0
   20.6530   -1.8418  -11.3921 C   0  0  0  0  0  0  0  0  0  0  0  0
   19.3963   -2.1272  -10.8608 C   0  0  0  0  0  0  0  0  0  0  0  0
   18.7071   -1.1442  -10.1414 C   0  0  0  0  0  0  0  0  0  0  0  0
   19.2670    0.1229   -9.9620 C   0  0  0  0  0  0  0  0  0  0  0  0
   18.5714    1.1621   -9.2281 C   0  0  0  0  0  0  0  0  0  0  0  0
   20.5386    0.3929  -10.4709 C   0  0  0  0  0  0  0  0  0  0  0  0
   27.5350   -1.0864   -8.5576 S   0  0  0  0  0  0  0  0  0  0  0  0
   27.1968   -2.0245   -7.4788 O   0  0  0  0  0  0  0  0  0  0  0  0
   28.6157   -1.4679   -9.4665 O   0  0  0  0  0  0  0  0  0  0  0  0
   27.9318    0.6142   -7.8020 C   0  0  0  0  0  0  0  0  0  0  0  0
   27.7568    1.5787   -8.6983 F   0  0  0  0  0  0  0  0  0  0  0  0
   27.1155    0.8088   -6.7700 F   0  0  0  0  0  0  0  0  0  0  0  0
   24.8004    0.6001  -12.7879 C   0  0  0  0  0  0  0  0  0  0  0  0
   24.7996    1.1238  -13.8126 N   0  0  0  0  0  0  0  0  0  0  0  0
   18.0264    1.9917   -8.6305 N   0  0  0  0  0  0  0  0  0  0  0  0
   28.1184    0.5861  -10.8006 H   0  0  0  0  0  0  0  0  0  0  0  0
   27.2481    1.0576  -12.1796 H   0  0  0  0  0  0  0  0  0  0  0  0
   27.7954   -0.6318  -12.0131 H   0  0  0  0  0  0  0  0  0  0  0  0
   24.7776   -1.4910   -7.9124 H   0  0  0  0  0  0  0  0  0  0  0  0
   22.6867   -1.2338   -9.1282 H   0  0  0  0  0  0  0  0  0  0  0  0
   21.1960   -2.5887  -11.9550 H   0  0  0  0  0  0  0  0  0  0  0  0
   18.9723   -3.1105  -11.0023 H   0  0  0  0  0  0  0  0  0  0  0  0
   17.7461   -1.3892   -9.7168 H   0  0  0  0  0  0  0  0  0  0  0  0
   21.0038    1.3570  -10.3207 H   0  0  0  0  0  0  0  0  0  0  0  0
   28.9726    0.6087   -7.4924 H   0  0  0  0  0  0  0  0  0  0  0  0
  1  3  1  0  0  0  0
  1 25  1  0  0  0  0
  1 26  1  0  0  0  0
  1 27  1  0  0  0  0
  2  3  2  0  0  0  0
  2  7  1  0  0  0  0
  2 22  1  0  0  0  0
  3  4  1  0  0  0  0
  4  5  2  0  0  0  0
  4 16  1  0  0  0  0
  5  6  1  0  0  0  0
  5 28  1  0  0  0  0
  6  7  2  0  0  0  0
  6 29  1  0  0  0  0
  7  8  1  0  0  0  0
  8  9  1  0  0  0  0
  9 10  2  0  0  0  0
  9 15  1  0  0  0  0
 10 11  1  0  0  0  0
 10 30  1  0  0  0  0
 11 12  2  0  0  0  0
 11 31  1  0  0  0  0
 12 13  1  0  0  0  0
 12 32  1  0  0  0  0
 13 14  1  0  0  0  0
 13 15  2  0  0  0  0
 14 24  3  0  0  0  0
 15 33  1  0  0  0  0
 16 17  2  0  0  0  0
 16 18  2  0  0  0  0
 16 19  1  0  0  0  0
 19 20  1  0  0  0  0
 19 21  1  0  0  0  0
 19 34  1  0  0  0  0
 22 23  3  0  0  0  0
M  END
>  <ID>
31

>  <IC50[uM](SPA)>
0.33

$$$$
