@<TRIPOS>MOLECULE
336
 37 39 0 0 0
SMALL
GASTEIGER
****
Structure written by MMmdl.
@<TRIPOS>ATOM
      1 O          28.0017    1.1554  -10.7561 O.3     1  LIG1       -0.3841
      2 C          27.1887    0.2094  -11.4461 C.3     1  LIG1        0.1164
      3 C          26.5170    0.8013  -12.6963 C.3     1  LIG1        0.1658
      4 C          25.1920    0.0739  -12.8350 C.3     1  LIG1        0.1633
      5 C          24.8410   -0.2394  -11.4041 C.ar    1  LIG1        0.0388
      6 C          25.9976   -0.2708  -10.6132 C.ar    1  LIG1        0.0195
      7 C          25.9018   -0.7012   -9.2751 C.ar    1  LIG1        0.1113
      8 C          24.6420   -0.9417   -8.7237 C.ar    1  LIG1       -0.0315
      9 C          23.4967   -0.8363   -9.5019 C.ar    1  LIG1       -0.0171
     10 C          23.5906   -0.5071  -10.8564 C.ar    1  LIG1        0.1349
     11 O          22.5177   -0.4372  -11.7191 O.3     1  LIG1       -0.4555
     12 C          21.2475   -0.6509  -11.2594 C.ar    1  LIG1        0.1324
     13 C          20.6133   -1.8570  -11.5324 C.ar    1  LIG1        0.0160
     14 C          19.3358   -2.0915  -11.0377 C.ar    1  LIG1        0.1281
     15 F          18.7005   -3.2450  -11.3168 F       1  LIG1       -0.2053
     16 C          18.6966   -1.1280  -10.2666 C.ar    1  LIG1       -0.0088
     17 C          19.3124    0.1012  -10.0242 C.ar    1  LIG1        0.0580
     18 C          18.6517    1.1490   -9.2706 C.1     1  LIG1        0.0994
     19 C          20.5958    0.3258  -10.5084 C.ar    1  LIG1       -0.0018
     20 S          27.3000   -1.0274   -8.2059 S.O2    1  LIG1        0.0563
     21 O          26.8468   -1.9518   -7.1631 O.2     1  LIG1       -0.1532
     22 O          28.4307   -1.3569   -9.0788 O.2     1  LIG1       -0.1532
     23 F          26.2251    2.0652  -12.4186 F       1  LIG1       -0.2391
     24 N          18.1329    1.9838   -8.6644 N.1     1  LIG1       -0.1909
     25 F          24.3006    0.8164  -13.4952 F       1  LIG1       -0.2372
     26 N          27.7092    0.4639   -7.4488 N.3     1  LIG1       -0.2035
     27 H          28.5314    1.6554  -11.3951 H       1  LIG1        0.2104
     28 H          27.7885   -0.6501  -11.7494 H       1  LIG1        0.0674
     29 H          27.1367    0.8148  -13.5962 H       1  LIG1        0.0714
     30 H          25.3024   -0.8318  -13.4322 H       1  LIG1        0.0734
     31 H          24.5459   -1.2350   -7.6890 H       1  LIG1        0.0638
     32 H          22.5403   -1.0632   -9.0641 H       1  LIG1        0.0655
     33 H          21.1114   -2.6124  -12.1160 H       1  LIG1        0.0683
     34 H          17.7386   -1.3762   -9.8563 H       1  LIG1        0.0659
     35 H          21.0990    1.2456  -10.2714 H       1  LIG1        0.0667
     36 H          26.9316    0.7997   -6.8682 H       1  LIG1        0.1442
     37 H          28.0360    1.1649   -8.1144 H       1  LIG1        0.1442
@<TRIPOS>BOND
     1     1     2    1
     2     1    27    1
     3     2     3    1
     4     2     6    1
     5     2    28    1
     6     3     4    1
     7     3    23    1
     8     3    29    1
     9     4     5    1
    10     4    25    1
    11     4    30    1
    12     5     6   ar
    13     5    10   ar
    14     6     7   ar
    15     7     8   ar
    16     7    20    1
    17     8     9   ar
    18     8    31    1
    19     9    10   ar
    20     9    32    1
    21    10    11    1
    22    11    12    1
    23    12    13   ar
    24    12    19   ar
    25    13    14   ar
    26    13    33    1
    27    14    15    1
    28    14    16   ar
    29    16    17   ar
    30    16    34    1
    31    17    18    1
    32    17    19   ar
    33    18    24    3
    34    19    35    1
    35    20    21    2
    36    20    22    2
    37    20    26    1
    38    26    36    1
    39    26    37    1
