336
 OpenBabel02152110423D
Structure written by MMmdl.
 37 39  0  0  1  0  0  0  0  0999 V2000
   28.0017    1.1554  -10.7561 O   0  0  0  0  0  0  0  0  0  0  0  0
   27.1887    0.2094  -11.4461 C   0  0  2  0  0  0  0  0  0  0  0  0
   26.5170    0.8013  -12.6963 C   0  0  1  0  0  0  0  0  0  0  0  0
   25.1920    0.0739  -12.8350 C   0  0  1  0  0  0  0  0  0  0  0  0
   24.8410   -0.2394  -11.4041 C   0  0  0  0  0  0  0  0  0  0  0  0
   25.9976   -0.2708  -10.6132 C   0  0  0  0  0  0  0  0  0  0  0  0
   25.9018   -0.7012   -9.2751 C   0  0  0  0  0  0  0  0  0  0  0  0
   24.6420   -0.9417   -8.7237 C   0  0  0  0  0  0  0  0  0  0  0  0
   23.4967   -0.8363   -9.5019 C   0  0  0  0  0  0  0  0  0  0  0  0
   23.5906   -0.5071  -10.8564 C   0  0  0  0  0  0  0  0  0  0  0  0
   22.5177   -0.4372  -11.7191 O   0  0  0  0  0  0  0  0  0  0  0  0
   21.2475   -0.6509  -11.2594 C   0  0  0  0  0  0  0  0  0  0  0  0
   20.6133   -1.8570  -11.5324 C   0  0  0  0  0  0  0  0  0  0  0  0
   19.3358   -2.0915  -11.0377 C   0  0  0  0  0  0  0  0  0  0  0  0
   18.7005   -3.2450  -11.3168 F   0  0  0  0  0  0  0  0  0  0  0  0
   18.6966   -1.1280  -10.2666 C   0  0  0  0  0  0  0  0  0  0  0  0
   19.3124    0.1012  -10.0242 C   0  0  0  0  0  0  0  0  0  0  0  0
   18.6517    1.1490   -9.2706 C   0  0  0  0  0  0  0  0  0  0  0  0
   20.5958    0.3258  -10.5084 C   0  0  0  0  0  0  0  0  0  0  0  0
   27.3000   -1.0274   -8.2059 S   0  0  0  0  0  0  0  0  0  0  0  0
   26.8468   -1.9518   -7.1631 O   0  0  0  0  0  0  0  0  0  0  0  0
   28.4307   -1.3569   -9.0788 O   0  0  0  0  0  0  0  0  0  0  0  0
   26.2251    2.0652  -12.4186 F   0  0  0  0  0  0  0  0  0  0  0  0
   18.1329    1.9838   -8.6644 N   0  0  0  0  0  0  0  0  0  0  0  0
   24.3006    0.8164  -13.4952 F   0  0  0  0  0  0  0  0  0  0  0  0
   27.7092    0.4639   -7.4488 N   0  0  0  0  0  0  0  0  0  0  0  0
   28.5314    1.6554  -11.3951 H   0  0  0  0  0  0  0  0  0  0  0  0
   27.7885   -0.6501  -11.7494 H   0  0  0  0  0  0  0  0  0  0  0  0
   27.1367    0.8148  -13.5962 H   0  0  0  0  0  0  0  0  0  0  0  0
   25.3024   -0.8318  -13.4322 H   0  0  0  0  0  0  0  0  0  0  0  0
   24.5459   -1.2350   -7.6890 H   0  0  0  0  0  0  0  0  0  0  0  0
   22.5403   -1.0632   -9.0641 H   0  0  0  0  0  0  0  0  0  0  0  0
   21.1114   -2.6124  -12.1160 H   0  0  0  0  0  0  0  0  0  0  0  0
   17.7386   -1.3762   -9.8563 H   0  0  0  0  0  0  0  0  0  0  0  0
   21.0990    1.2456  -10.2714 H   0  0  0  0  0  0  0  0  0  0  0  0
   26.9316    0.7997   -6.8682 H   0  0  0  0  0  0  0  0  0  0  0  0
   28.0360    1.1649   -8.1144 H   0  0  0  0  0  0  0  0  0  0  0  0
  1  2  1  0  0  0  0
  1 27  1  0  0  0  0
  2  3  1  0  0  0  0
  2  6  1  0  0  0  0
  2 28  1  6  0  0  0
  3  4  1  0  0  0  0
  3 23  1  0  0  0  0
  3 29  1  6  0  0  0
  4  5  1  0  0  0  0
  4 25  1  0  0  0  0
  4 30  1  6  0  0  0
  5  6  2  0  0  0  0
  5 10  1  0  0  0  0
  6  7  1  0  0  0  0
  7  8  2  0  0  0  0
  7 20  1  0  0  0  0
  8  9  1  0  0  0  0
  8 31  1  0  0  0  0
  9 10  2  0  0  0  0
  9 32  1  0  0  0  0
 10 11  1  0  0  0  0
 11 12  1  0  0  0  0
 12 13  2  0  0  0  0
 12 19  1  0  0  0  0
 13 14  1  0  0  0  0
 13 33  1  0  0  0  0
 14 15  1  0  0  0  0
 14 16  2  0  0  0  0
 16 17  1  0  0  0  0
 16 34  1  0  0  0  0
 17 18  1  0  0  0  0
 17 19  2  0  0  0  0
 18 24  3  0  0  0  0
 19 35  1  0  0  0  0
 20 21  2  0  0  0  0
 20 22  2  0  0  0  0
 20 26  1  0  0  0  0
 26 36  1  0  0  0  0
 26 37  1  0  0  0  0
M  END
>  <ID>
336

>  <IC50[uM](SPA)>
0.063

$$$$
