338
 OpenBabel02152110423D
Structure written by MMmdl.
 37 39  0  0  1  0  0  0  0  0999 V2000
   27.6451    1.5396  -11.1263 O   0  0  0  0  0  0  0  0  0  0  0  0
   27.1573    0.3054  -11.6394 C   0  0  2  0  0  0  0  0  0  0  0  0
   26.5145    0.3811  -13.0370 C   0  0  0  0  0  0  0  0  0  0  0  0
   25.0296    0.6292  -12.8066 C   0  0  1  0  0  0  0  0  0  0  0  0
   24.8033   -0.0375  -11.4699 C   0  0  0  0  0  0  0  0  0  0  0  0
   26.0149   -0.2195  -10.7892 C   0  0  0  0  0  0  0  0  0  0  0  0
   26.0208   -0.7620   -9.4965 C   0  0  0  0  0  0  0  0  0  0  0  0
   24.8017   -1.0822   -8.8969 C   0  0  0  0  0  0  0  0  0  0  0  0
   23.6059   -0.9366   -9.5941 C   0  0  0  0  0  0  0  0  0  0  0  0
   23.6020   -0.4342  -10.9000 C   0  0  0  0  0  0  0  0  0  0  0  0
   22.4861   -0.2954  -11.6940 O   0  0  0  0  0  0  0  0  0  0  0  0
   21.2424   -0.5775  -11.1970 C   0  0  0  0  0  0  0  0  0  0  0  0
   20.6737   -1.8297  -11.4038 C   0  0  0  0  0  0  0  0  0  0  0  0
   19.4234   -2.1113  -10.8674 C   0  0  0  0  0  0  0  0  0  0  0  0
   18.8511   -3.3118  -11.0589 F   0  0  0  0  0  0  0  0  0  0  0  0
   18.7462   -1.1423  -10.1427 C   0  0  0  0  0  0  0  0  0  0  0  0
   19.2860    0.1245   -9.9701 C   0  0  0  0  0  0  0  0  0  0  0  0
   18.5760    1.1643   -9.2539 C   0  0  0  0  0  0  0  0  0  0  0  0
   20.5501    0.3903  -10.4736 C   0  0  0  0  0  0  0  0  0  0  0  0
   27.5283   -1.0639   -8.5710 S   0  0  0  0  0  0  0  0  0  0  0  0
   27.2110   -1.9989   -7.4925 O   0  0  0  0  0  0  0  0  0  0  0  0
   28.6000   -1.3708   -9.5178 O   0  0  0  0  0  0  0  0  0  0  0  0
   27.0777    1.2809  -13.8505 F   0  0  0  0  0  0  0  0  0  0  0  0
   18.0176    1.9927   -8.6784 N   0  0  0  0  0  0  0  0  0  0  0  0
   24.8400    1.9615  -12.6525 F   0  0  0  0  0  0  0  0  0  0  0  0
   26.6372   -0.7929  -13.6486 F   0  0  0  0  0  0  0  0  0  0  0  0
   27.9360    0.4657   -7.8636 N   0  0  0  0  0  0  0  0  0  0  0  0
   28.3611    1.8550  -11.6954 H   0  0  0  0  0  0  0  0  0  0  0  0
   27.9701   -0.4195  -11.7119 H   0  0  0  0  0  0  0  0  0  0  0  0
   24.3886    0.2707  -13.6271 H   0  0  0  0  0  0  0  0  0  0  0  0
   24.7736   -1.4789   -7.8939 H   0  0  0  0  0  0  0  0  0  0  0  0
   22.6914   -1.2459   -9.1138 H   0  0  0  0  0  0  0  0  0  0  0  0
   21.2074   -2.5951  -11.9425 H   0  0  0  0  0  0  0  0  0  0  0  0
   17.8099   -1.4198   -9.7083 H   0  0  0  0  0  0  0  0  0  0  0  0
   21.0016    1.3428  -10.2620 H   0  0  0  0  0  0  0  0  0  0  0  0
   27.2694    0.7696   -7.1547 H   0  0  0  0  0  0  0  0  0  0  0  0
   28.1746    1.1824   -8.5552 H   0  0  0  0  0  0  0  0  0  0  0  0
  1  2  1  0  0  0  0
  1 28  1  0  0  0  0
  2  3  1  0  0  0  0
  2  6  1  0  0  0  0
  2 29  1  6  0  0  0
  3  4  1  0  0  0  0
  3 23  1  0  0  0  0
  3 26  1  0  0  0  0
  4  5  1  0  0  0  0
  4 25  1  0  0  0  0
  4 30  1  6  0  0  0
  5  6  2  0  0  0  0
  5 10  1  0  0  0  0
  6  7  1  0  0  0  0
  7  8  2  0  0  0  0
  7 20  1  0  0  0  0
  8  9  1  0  0  0  0
  8 31  1  0  0  0  0
  9 10  2  0  0  0  0
  9 32  1  0  0  0  0
 10 11  1  0  0  0  0
 11 12  1  0  0  0  0
 12 13  2  0  0  0  0
 12 19  1  0  0  0  0
 13 14  1  0  0  0  0
 13 33  1  0  0  0  0
 14 15  1  0  0  0  0
 14 16  2  0  0  0  0
 16 17  1  0  0  0  0
 16 34  1  0  0  0  0
 17 18  1  0  0  0  0
 17 19  2  0  0  0  0
 18 24  3  0  0  0  0
 19 35  1  0  0  0  0
 20 21  2  0  0  0  0
 20 22  2  0  0  0  0
 20 27  1  0  0  0  0
 27 36  1  0  0  0  0
 27 37  1  0  0  0  0
M  END
>  <ID>
338

>  <IC50[uM](SPA)>
0.013

$$$$
