@<TRIPOS>MOLECULE
35
 34 35 0 0 0
SMALL
GASTEIGER
****
Structure written by MMmdl.
@<TRIPOS>ATOM
      1 C          27.3436    0.2181  -11.4886 C.3     1  LIG1        0.0723
      2 C          24.8143   -0.0349  -11.4934 C.ar    1  LIG1        0.1010
      3 C          26.0359   -0.2157  -10.8128 C.ar    1  LIG1        0.0237
      4 C          26.0279   -0.7798   -9.5188 C.ar    1  LIG1        0.1012
      5 C          24.8027   -1.0842   -8.9107 C.ar    1  LIG1       -0.0328
      6 C          23.6077   -0.9361   -9.6066 C.ar    1  LIG1       -0.0162
      7 C          23.6033   -0.4369  -10.9127 C.ar    1  LIG1        0.1462
      8 O          22.4684   -0.3083  -11.6869 O.3     1  LIG1       -0.4546
      9 C          21.2346   -0.5820  -11.1843 C.ar    1  LIG1        0.1326
     10 C          20.6688   -1.8348  -11.3989 C.ar    1  LIG1        0.0160
     11 C          19.4172   -2.1128  -10.8633 C.ar    1  LIG1        0.1283
     12 C          18.7392   -1.1398  -10.1370 C.ar    1  LIG1       -0.0079
     13 C          19.2891    0.1256   -9.9557 C.ar    1  LIG1        0.0472
     14 CL         18.4298    1.3495   -9.0945 Cl      1  LIG1       -0.0833
     15 C          20.5490    0.3955  -10.4695 C.ar    1  LIG1       -0.0008
     16 S          27.5361   -1.1002   -8.5609 S.O2    1  LIG1        0.0583
     17 O          27.1915   -2.0165   -7.4763 O.2     1  LIG1       -0.1639
     18 O          28.6294   -1.4923   -9.4625 O.2     1  LIG1       -0.1639
     19 C          27.9209    0.6056   -7.8457 C.3     1  LIG1        0.3566
     20 F          27.8955    1.4798   -8.8507 F       1  LIG1       -0.1834
     21 F          26.9875    0.8733   -6.9434 F       1  LIG1       -0.1834
     22 C          24.7678    0.5910  -12.8118 C.1     1  LIG1        0.1033
     23 N          24.7397    1.0868  -13.8577 N.1     1  LIG1       -0.1907
     24 O          27.7506    1.4985  -11.0563 O.3     1  LIG1       -0.3903
     25 F          18.8551   -3.3220  -11.0512 F       1  LIG1       -0.2053
     26 H          28.1384   -0.4849  -11.3364 H       1  LIG1        0.0608
     27 H          27.2792    0.1852  -12.5694 H       1  LIG1        0.0608
     28 H          24.7669   -1.4583   -7.8977 H       1  LIG1        0.0638
     29 H          22.6880   -1.2361   -9.1232 H       1  LIG1        0.0655
     30 H          21.2037   -2.5885  -11.9555 H       1  LIG1        0.0683
     31 H          17.7939   -1.3817   -9.7021 H       1  LIG1        0.0661
     32 H          20.9933    1.3586  -10.2824 H       1  LIG1        0.0669
     33 H          28.8931    0.6288   -7.3559 H       1  LIG1        0.1280
     34 H          28.4520    1.8114  -11.6736 H       1  LIG1        0.2098
@<TRIPOS>BOND
     1     1     3    1
     2     1    24    1
     3     1    26    1
     4     1    27    1
     5     2     3   ar
     6     2     7   ar
     7     2    22    1
     8     3     4   ar
     9     4     5   ar
    10     4    16    1
    11     5     6   ar
    12     5    28    1
    13     6     7   ar
    14     6    29    1
    15     7     8    1
    16     8     9    1
    17     9    10   ar
    18     9    15   ar
    19    10    11   ar
    20    10    30    1
    21    11    12   ar
    22    11    25    1
    23    12    13   ar
    24    12    31    1
    25    13    14    1
    26    13    15   ar
    27    15    32    1
    28    16    17    2
    29    16    18    2
    30    16    19    1
    31    19    20    1
    32    19    21    1
    33    19    33    1
    34    22    23    3
    35    24    34    1
