35
 OpenBabel02152110423D
Structure written by MMmdl.
 34 35  0  0  1  0  0  0  0  0999 V2000
   27.3436    0.2181  -11.4886 C   0  0  0  0  0  0  0  0  0  0  0  0
   24.8143   -0.0349  -11.4934 C   0  0  0  0  0  0  0  0  0  0  0  0
   26.0359   -0.2157  -10.8128 C   0  0  0  0  0  0  0  0  0  0  0  0
   26.0279   -0.7798   -9.5188 C   0  0  0  0  0  0  0  0  0  0  0  0
   24.8027   -1.0842   -8.9107 C   0  0  0  0  0  0  0  0  0  0  0  0
   23.6077   -0.9361   -9.6066 C   0  0  0  0  0  0  0  0  0  0  0  0
   23.6033   -0.4369  -10.9127 C   0  0  0  0  0  0  0  0  0  0  0  0
   22.4684   -0.3083  -11.6869 O   0  0  0  0  0  0  0  0  0  0  0  0
   21.2346   -0.5820  -11.1843 C   0  0  0  0  0  0  0  0  0  0  0  0
   20.6688   -1.8348  -11.3989 C   0  0  0  0  0  0  0  0  0  0  0  0
   19.4172   -2.1128  -10.8633 C   0  0  0  0  0  0  0  0  0  0  0  0
   18.7392   -1.1398  -10.1370 C   0  0  0  0  0  0  0  0  0  0  0  0
   19.2891    0.1256   -9.9557 C   0  0  0  0  0  0  0  0  0  0  0  0
   18.4298    1.3495   -9.0945 Cl  0  0  0  0  0  0  0  0  0  0  0  0
   20.5490    0.3955  -10.4695 C   0  0  0  0  0  0  0  0  0  0  0  0
   27.5361   -1.1002   -8.5609 S   0  0  0  0  0  0  0  0  0  0  0  0
   27.1915   -2.0165   -7.4763 O   0  0  0  0  0  0  0  0  0  0  0  0
   28.6294   -1.4923   -9.4625 O   0  0  0  0  0  0  0  0  0  0  0  0
   27.9209    0.6056   -7.8457 C   0  0  0  0  0  0  0  0  0  0  0  0
   27.8955    1.4798   -8.8507 F   0  0  0  0  0  0  0  0  0  0  0  0
   26.9875    0.8733   -6.9434 F   0  0  0  0  0  0  0  0  0  0  0  0
   24.7678    0.5910  -12.8118 C   0  0  0  0  0  0  0  0  0  0  0  0
   24.7397    1.0868  -13.8577 N   0  0  0  0  0  0  0  0  0  0  0  0
   27.7506    1.4985  -11.0563 O   0  0  0  0  0  0  0  0  0  0  0  0
   18.8551   -3.3220  -11.0512 F   0  0  0  0  0  0  0  0  0  0  0  0
   28.1384   -0.4849  -11.3364 H   0  0  0  0  0  0  0  0  0  0  0  0
   27.2792    0.1852  -12.5694 H   0  0  0  0  0  0  0  0  0  0  0  0
   24.7669   -1.4583   -7.8977 H   0  0  0  0  0  0  0  0  0  0  0  0
   22.6880   -1.2361   -9.1232 H   0  0  0  0  0  0  0  0  0  0  0  0
   21.2037   -2.5885  -11.9555 H   0  0  0  0  0  0  0  0  0  0  0  0
   17.7939   -1.3817   -9.7021 H   0  0  0  0  0  0  0  0  0  0  0  0
   20.9933    1.3586  -10.2824 H   0  0  0  0  0  0  0  0  0  0  0  0
   28.8931    0.6288   -7.3559 H   0  0  0  0  0  0  0  0  0  0  0  0
   28.4520    1.8114  -11.6736 H   0  0  0  0  0  0  0  0  0  0  0  0
  1  3  1  0  0  0  0
  1 24  1  0  0  0  0
  1 26  1  0  0  0  0
  1 27  1  0  0  0  0
  2  3  2  0  0  0  0
  2  7  1  0  0  0  0
  2 22  1  0  0  0  0
  3  4  1  0  0  0  0
  4  5  2  0  0  0  0
  4 16  1  0  0  0  0
  5  6  1  0  0  0  0
  5 28  1  0  0  0  0
  6  7  2  0  0  0  0
  6 29  1  0  0  0  0
  7  8  1  0  0  0  0
  8  9  1  0  0  0  0
  9 10  2  0  0  0  0
  9 15  1  0  0  0  0
 10 11  1  0  0  0  0
 10 30  1  0  0  0  0
 11 12  2  0  0  0  0
 11 25  1  0  0  0  0
 12 13  1  0  0  0  0
 12 31  1  0  0  0  0
 13 14  1  0  0  0  0
 13 15  2  0  0  0  0
 15 32  1  0  0  0  0
 16 17  2  0  0  0  0
 16 18  2  0  0  0  0
 16 19  1  0  0  0  0
 19 20  1  0  0  0  0
 19 21  1  0  0  0  0
 19 33  1  0  0  0  0
 22 23  3  0  0  0  0
 24 34  1  0  0  0  0
M  END
>  <ID>
35

>  <IC50[uM](SPA)>
5.7

$$$$
