@<TRIPOS>MOLECULE
41
 33 34 0 0 0
SMALL
GASTEIGER
****
Structure written by MMmdl.
@<TRIPOS>ATOM
      1 C          27.3160    0.2119  -11.5679 C.3     1  LIG1        0.0725
      2 C          24.8220   -0.0323  -11.5026 C.ar    1  LIG1        0.0903
      3 C          26.0361   -0.2219  -10.8310 C.ar    1  LIG1        0.0247
      4 C          26.0397   -0.7735   -9.5325 C.ar    1  LIG1        0.1014
      5 C          24.8104   -1.0828   -8.9203 C.ar    1  LIG1       -0.0328
      6 C          23.6135   -0.9357   -9.6149 C.ar    1  LIG1       -0.0161
      7 C          23.6068   -0.4317  -10.9153 C.ar    1  LIG1        0.1471
      8 O          22.4766   -0.2993  -11.6901 O.3     1  LIG1       -0.4544
      9 C          21.2357   -0.5744  -11.1818 C.ar    1  LIG1        0.1326
     10 C          20.6684   -1.8291  -11.3974 C.ar    1  LIG1        0.0160
     11 C          19.4181   -2.1063  -10.8643 C.ar    1  LIG1        0.1283
     12 C          18.7365   -1.1464  -10.1377 C.ar    1  LIG1       -0.0079
     13 C          19.2879    0.1264   -9.9486 C.ar    1  LIG1        0.0472
     14 CL         18.4235    1.3441   -9.0874 Cl      1  LIG1       -0.0833
     15 C          20.5478    0.3920  -10.4587 C.ar    1  LIG1       -0.0008
     16 S          27.5365   -1.0750   -8.5540 S.O2    1  LIG1        0.0583
     17 O          27.1819   -2.0141   -7.4668 O.2     1  LIG1       -0.1639
     18 O          28.6395   -1.4886   -9.4342 O.2     1  LIG1       -0.1639
     19 C          27.9537    0.5878   -7.7603 C.3     1  LIG1        0.3566
     20 F          27.8618    1.5770   -8.6716 F       1  LIG1       -0.1834
     21 F          27.0945    0.8268   -6.7955 F       1  LIG1       -0.1834
     22 CL         24.7431    0.7028  -13.0772 Cl      1  LIG1       -0.0793
     23 O          27.6785    1.5088  -11.1977 O.3     1  LIG1       -0.3903
     24 F          18.8518   -3.3193  -11.0584 F       1  LIG1       -0.2053
     25 H          28.1256   -0.4939  -11.4275 H       1  LIG1        0.0608
     26 H          27.1998    0.1919  -12.6248 H       1  LIG1        0.0608
     27 H          24.7747   -1.4609   -7.9094 H       1  LIG1        0.0638
     28 H          22.6917   -1.2340   -9.1288 H       1  LIG1        0.0655
     29 H          21.2039   -2.5877  -11.9510 H       1  LIG1        0.0683
     30 H          17.7946   -1.3928   -9.6999 H       1  LIG1        0.0661
     31 H          20.9897    1.3596  -10.2596 H       1  LIG1        0.0669
     32 H          28.9741    0.5773   -7.4253 H       1  LIG1        0.1280
     33 H          28.4604    1.8112  -11.7624 H       1  LIG1        0.2098
@<TRIPOS>BOND
     1     1     3    1
     2     1    23    1
     3     1    25    1
     4     1    26    1
     5     2     3   ar
     6     2     7   ar
     7     2    22    1
     8     3     4   ar
     9     4     5   ar
    10     4    16    1
    11     5     6   ar
    12     5    27    1
    13     6     7   ar
    14     6    28    1
    15     7     8    1
    16     8     9    1
    17     9    10   ar
    18     9    15   ar
    19    10    11   ar
    20    10    29    1
    21    11    12   ar
    22    11    24    1
    23    12    13   ar
    24    12    30    1
    25    13    14    1
    26    13    15   ar
    27    15    31    1
    28    16    17    2
    29    16    18    2
    30    16    19    1
    31    19    20    1
    32    19    21    1
    33    19    32    1
    34    23    33    1
