@<TRIPOS>MOLECULE
42
 34 35 0 0 0
SMALL
GASTEIGER
****
Structure written by MMmdl.
@<TRIPOS>ATOM
      1 C          27.3181    0.2176  -11.5431 C.3     1  LIG1        0.0725
      2 C          24.8173   -0.0332  -11.4982 C.ar    1  LIG1        0.0903
      3 C          26.0316   -0.2203  -10.8241 C.ar    1  LIG1        0.0247
      4 C          26.0328   -0.7764   -9.5277 C.ar    1  LIG1        0.1014
      5 C          24.8083   -1.0836   -8.9200 C.ar    1  LIG1       -0.0328
      6 C          23.6105   -0.9378   -9.6088 C.ar    1  LIG1       -0.0161
      7 C          23.6080   -0.4325  -10.9159 C.ar    1  LIG1        0.1471
      8 O          22.4782   -0.3027  -11.6931 O.3     1  LIG1       -0.4544
      9 C          21.2413   -0.5786  -11.1883 C.ar    1  LIG1        0.1324
     10 C          20.6684   -1.8341  -11.3988 C.ar    1  LIG1        0.0160
     11 C          19.4219   -2.1085  -10.8663 C.ar    1  LIG1        0.1281
     12 C          18.7432   -1.1382  -10.1421 C.ar    1  LIG1       -0.0088
     13 C          19.2836    0.1206   -9.9615 C.ar    1  LIG1        0.0580
     14 C          18.5727    1.1637   -9.2506 C.1     1  LIG1        0.0994
     15 C          20.5566    0.3950  -10.4703 C.ar    1  LIG1       -0.0018
     16 S          27.5391   -1.0763   -8.5681 S.O2    1  LIG1        0.0583
     17 O          27.1919   -2.0237   -7.4724 O.2     1  LIG1       -0.1639
     18 O          28.6309   -1.4696   -9.4479 O.2     1  LIG1       -0.1639
     19 C          27.9381    0.5939   -7.7835 C.3     1  LIG1        0.3566
     20 F          27.5845    1.5769   -8.6192 F       1  LIG1       -0.1834
     21 F          27.2323    0.7221   -6.6748 F       1  LIG1       -0.1834
     22 CL         24.7447    0.7035  -13.0743 Cl      1  LIG1       -0.0793
     23 O          27.7285    1.4980  -11.1377 O.3     1  LIG1       -0.3903
     24 F          18.8540   -3.3240  -11.0570 F       1  LIG1       -0.2053
     25 N          17.9992    1.9902   -8.6618 N.1     1  LIG1       -0.1909
     26 H          28.1192   -0.5047  -11.4029 H       1  LIG1        0.0608
     27 H          27.2079    0.2157  -12.6078 H       1  LIG1        0.0608
     28 H          24.7733   -1.4610   -7.9041 H       1  LIG1        0.0638
     29 H          22.6894   -1.2359   -9.1283 H       1  LIG1        0.0655
     30 H          21.2059   -2.5899  -11.9543 H       1  LIG1        0.0683
     31 H          17.7913   -1.4035   -9.7072 H       1  LIG1        0.0659
     32 H          21.0082    1.3546  -10.2735 H       1  LIG1        0.0667
     33 H          29.0034    0.6658   -7.6024 H       1  LIG1        0.1280
     34 H          28.5462    1.7462  -11.6214 H       1  LIG1        0.2098
@<TRIPOS>BOND
     1     1     3    1
     2     1    23    1
     3     1    26    1
     4     1    27    1
     5     2     3   ar
     6     2     7   ar
     7     2    22    1
     8     3     4   ar
     9     4     5   ar
    10     4    16    1
    11     5     6   ar
    12     5    28    1
    13     6     7   ar
    14     6    29    1
    15     7     8    1
    16     8     9    1
    17     9    10   ar
    18     9    15   ar
    19    10    11   ar
    20    10    30    1
    21    11    12   ar
    22    11    24    1
    23    12    13   ar
    24    12    31    1
    25    13    14    1
    26    13    15   ar
    27    14    25    3
    28    15    32    1
    29    16    17    2
    30    16    18    2
    31    16    19    1
    32    19    20    1
    33    19    21    1
    34    19    33    1
    35    23    34    1
