42
 OpenBabel02152110423D
Structure written by MMmdl.
 34 35  0  0  1  0  0  0  0  0999 V2000
   27.3181    0.2176  -11.5431 C   0  0  0  0  0  0  0  0  0  0  0  0
   24.8173   -0.0332  -11.4982 C   0  0  0  0  0  0  0  0  0  0  0  0
   26.0316   -0.2203  -10.8241 C   0  0  0  0  0  0  0  0  0  0  0  0
   26.0328   -0.7764   -9.5277 C   0  0  0  0  0  0  0  0  0  0  0  0
   24.8083   -1.0836   -8.9200 C   0  0  0  0  0  0  0  0  0  0  0  0
   23.6105   -0.9378   -9.6088 C   0  0  0  0  0  0  0  0  0  0  0  0
   23.6080   -0.4325  -10.9159 C   0  0  0  0  0  0  0  0  0  0  0  0
   22.4782   -0.3027  -11.6931 O   0  0  0  0  0  0  0  0  0  0  0  0
   21.2413   -0.5786  -11.1883 C   0  0  0  0  0  0  0  0  0  0  0  0
   20.6684   -1.8341  -11.3988 C   0  0  0  0  0  0  0  0  0  0  0  0
   19.4219   -2.1085  -10.8663 C   0  0  0  0  0  0  0  0  0  0  0  0
   18.7432   -1.1382  -10.1421 C   0  0  0  0  0  0  0  0  0  0  0  0
   19.2836    0.1206   -9.9615 C   0  0  0  0  0  0  0  0  0  0  0  0
   18.5727    1.1637   -9.2506 C   0  0  0  0  0  0  0  0  0  0  0  0
   20.5566    0.3950  -10.4703 C   0  0  0  0  0  0  0  0  0  0  0  0
   27.5391   -1.0763   -8.5681 S   0  0  0  0  0  0  0  0  0  0  0  0
   27.1919   -2.0237   -7.4724 O   0  0  0  0  0  0  0  0  0  0  0  0
   28.6309   -1.4696   -9.4479 O   0  0  0  0  0  0  0  0  0  0  0  0
   27.9381    0.5939   -7.7835 C   0  0  0  0  0  0  0  0  0  0  0  0
   27.5845    1.5769   -8.6192 F   0  0  0  0  0  0  0  0  0  0  0  0
   27.2323    0.7221   -6.6748 F   0  0  0  0  0  0  0  0  0  0  0  0
   24.7447    0.7035  -13.0743 Cl  0  0  0  0  0  0  0  0  0  0  0  0
   27.7285    1.4980  -11.1377 O   0  0  0  0  0  0  0  0  0  0  0  0
   18.8540   -3.3240  -11.0570 F   0  0  0  0  0  0  0  0  0  0  0  0
   17.9992    1.9902   -8.6618 N   0  0  0  0  0  0  0  0  0  0  0  0
   28.1192   -0.5047  -11.4029 H   0  0  0  0  0  0  0  0  0  0  0  0
   27.2079    0.2157  -12.6078 H   0  0  0  0  0  0  0  0  0  0  0  0
   24.7733   -1.4610   -7.9041 H   0  0  0  0  0  0  0  0  0  0  0  0
   22.6894   -1.2359   -9.1283 H   0  0  0  0  0  0  0  0  0  0  0  0
   21.2059   -2.5899  -11.9543 H   0  0  0  0  0  0  0  0  0  0  0  0
   17.7913   -1.4035   -9.7072 H   0  0  0  0  0  0  0  0  0  0  0  0
   21.0082    1.3546  -10.2735 H   0  0  0  0  0  0  0  0  0  0  0  0
   29.0034    0.6658   -7.6024 H   0  0  0  0  0  0  0  0  0  0  0  0
   28.5462    1.7462  -11.6214 H   0  0  0  0  0  0  0  0  0  0  0  0
  1  3  1  0  0  0  0
  1 23  1  0  0  0  0
  1 26  1  0  0  0  0
  1 27  1  0  0  0  0
  2  3  2  0  0  0  0
  2  7  1  0  0  0  0
  2 22  1  0  0  0  0
  3  4  1  0  0  0  0
  4  5  2  0  0  0  0
  4 16  1  0  0  0  0
  5  6  1  0  0  0  0
  5 28  1  0  0  0  0
  6  7  2  0  0  0  0
  6 29  1  0  0  0  0
  7  8  1  0  0  0  0
  8  9  1  0  0  0  0
  9 10  2  0  0  0  0
  9 15  1  0  0  0  0
 10 11  1  0  0  0  0
 10 30  1  0  0  0  0
 11 12  2  0  0  0  0
 11 24  1  0  0  0  0
 12 13  1  0  0  0  0
 12 31  1  0  0  0  0
 13 14  1  0  0  0  0
 13 15  2  0  0  0  0
 14 25  3  0  0  0  0
 15 32  1  0  0  0  0
 16 17  2  0  0  0  0
 16 18  2  0  0  0  0
 16 19  1  0  0  0  0
 19 20  1  0  0  0  0
 19 21  1  0  0  0  0
 19 33  1  0  0  0  0
 23 34  1  0  0  0  0
M  END
>  <ID>
42

>  <IC50[uM](SPA)>
0.28

$$$$
