@<TRIPOS>MOLECULE
43
 34 35 0 0 0
SMALL
GASTEIGER
****
Structure written by MMmdl.
@<TRIPOS>ATOM
      1 C          27.3206    0.2092  -11.5444 C.3     1  LIG1        0.0725
      2 C          24.8104   -0.0377  -11.5023 C.ar    1  LIG1        0.0903
      3 C          26.0342   -0.2249  -10.8317 C.ar    1  LIG1        0.0247
      4 C          26.0391   -0.7726   -9.5293 C.ar    1  LIG1        0.1014
      5 C          24.8129   -1.0870   -8.9213 C.ar    1  LIG1       -0.0328
      6 C          23.6118   -0.9391   -9.6083 C.ar    1  LIG1       -0.0161
      7 C          23.6108   -0.4248  -10.9220 C.ar    1  LIG1        0.1471
      8 O          22.4761   -0.3049  -11.6918 O.3     1  LIG1       -0.4545
      9 C          21.2375   -0.5838  -11.1900 C.ar    1  LIG1        0.1297
     10 C          20.6642   -1.8394  -11.3980 C.ar    1  LIG1       -0.0193
     11 C          19.4099   -2.1222  -10.8637 C.ar    1  LIG1       -0.0571
     12 C          18.7315   -1.1370  -10.1413 C.ar    1  LIG1       -0.0441
     13 C          19.2646    0.1136   -9.9710 C.ar    1  LIG1        0.0552
     14 C          18.5795    1.1649   -9.2431 C.1     1  LIG1        0.0993
     15 C          20.5604    0.4002  -10.4797 C.ar    1  LIG1       -0.0020
     16 S          27.5401   -1.0912   -8.5545 S.O2    1  LIG1        0.0583
     17 O          27.1859   -2.0084   -7.4841 O.2     1  LIG1       -0.1639
     18 O          28.6206   -1.4509   -9.4586 O.2     1  LIG1       -0.1639
     19 C          27.9627    0.5938   -7.7916 C.3     1  LIG1        0.3566
     20 F          27.7984    1.5671   -8.6677 F       1  LIG1       -0.1834
     21 F          27.0861    0.7983   -6.7353 F       1  LIG1       -0.1834
     22 CL         24.7409    0.7017  -13.0762 Cl      1  LIG1       -0.0793
     23 O          27.6879    1.5242  -11.1857 O.3     1  LIG1       -0.3903
     24 N          18.0013    1.9953   -8.6849 N.1     1  LIG1       -0.1909
     25 H          28.1313   -0.4949  -11.3851 H       1  LIG1        0.0608
     26 H          27.2003    0.1946  -12.6299 H       1  LIG1        0.0608
     27 H          24.7742   -1.4735   -7.9133 H       1  LIG1        0.0638
     28 H          22.6888   -1.2338   -9.1280 H       1  LIG1        0.0655
     29 H          21.2029   -2.5876  -11.9606 H       1  LIG1        0.0654
     30 H          18.9769   -3.1014  -11.0060 H       1  LIG1        0.0619
     31 H          17.7565   -1.3858   -9.7173 H       1  LIG1        0.0630
     32 H          21.0066    1.3603  -10.3264 H       1  LIG1        0.0667
     33 H          28.9730    0.5924   -7.4558 H       1  LIG1        0.1280
     34 H          28.4959    1.7705  -11.6621 H       1  LIG1        0.2098
@<TRIPOS>BOND
     1     1     3    1
     2     1    23    1
     3     1    25    1
     4     1    26    1
     5     2     3   ar
     6     2     7   ar
     7     2    22    1
     8     3     4   ar
     9     4     5   ar
    10     4    16    1
    11     5     6   ar
    12     5    27    1
    13     6     7   ar
    14     6    28    1
    15     7     8    1
    16     8     9    1
    17     9    10   ar
    18     9    15   ar
    19    10    11   ar
    20    10    29    1
    21    11    12   ar
    22    11    30    1
    23    12    13   ar
    24    12    31    1
    25    13    14    1
    26    13    15   ar
    27    14    24    3
    28    15    32    1
    29    16    17    2
    30    16    18    2
    31    16    19    1
    32    19    20    1
    33    19    21    1
    34    19    33    1
    35    23    34    1
