@<TRIPOS>MOLECULE
50
 33 34 0 0 0
SMALL
GASTEIGER
****
Structure written by MMmdl.
@<TRIPOS>ATOM
      1 C          27.3390    0.1920  -11.4897 C.3     1  LIG1       -0.0366
      2 C          24.8115   -0.0320  -11.4904 C.ar    1  LIG1        0.0986
      3 C          26.0318   -0.2159  -10.8097 C.ar    1  LIG1       -0.0048
      4 C          26.0227   -0.7765   -9.5149 C.ar    1  LIG1        0.0922
      5 C          24.7999   -1.0827   -8.9074 C.ar    1  LIG1       -0.0331
      6 C          23.6041   -0.9361   -9.6042 C.ar    1  LIG1       -0.0162
      7 C          23.6047   -0.4331  -10.9129 C.ar    1  LIG1        0.1461
      8 O          22.4696   -0.3076  -11.6887 O.3     1  LIG1       -0.4546
      9 C          21.2371   -0.5820  -11.1896 C.ar    1  LIG1        0.1326
     10 C          20.6706   -1.8347  -11.4004 C.ar    1  LIG1        0.0160
     11 C          19.4200   -2.1133  -10.8631 C.ar    1  LIG1        0.1283
     12 C          18.7409   -1.1381  -10.1380 C.ar    1  LIG1       -0.0079
     13 C          19.2928    0.1262   -9.9592 C.ar    1  LIG1        0.0472
     14 CL         18.4329    1.3500   -9.0987 Cl      1  LIG1       -0.0833
     15 C          20.5510    0.3973  -10.4761 C.ar    1  LIG1       -0.0008
     16 S          27.5371   -1.0872   -8.5685 S.O2    1  LIG1       -0.0056
     17 O          27.2050   -2.0060   -7.4766 O.2     1  LIG1       -0.1696
     18 C          27.9344    0.6067   -7.8551 C.3     1  LIG1        0.0596
     19 C          24.7666    0.6009  -12.8075 C.1     1  LIG1        0.1032
     20 N          24.7316    1.1052  -13.8442 N.1     1  LIG1       -0.1907
     21 F          18.8585   -3.3227  -11.0488 F       1  LIG1       -0.2053
     22 O          28.6335   -1.4776   -9.4489 O.2     1  LIG1       -0.1696
     23 H          28.1506   -0.4789  -11.3067 H       1  LIG1        0.0278
     24 H          27.6428    1.1924  -11.1938 H       1  LIG1        0.0278
     25 H          27.3039    0.1099  -12.5710 H       1  LIG1        0.0278
     26 H          24.7642   -1.4526   -7.8916 H       1  LIG1        0.0638
     27 H          22.6854   -1.2290   -9.1184 H       1  LIG1        0.0655
     28 H          21.2054   -2.5880  -11.9589 H       1  LIG1        0.0683
     29 H          17.7935   -1.3751   -9.7040 H       1  LIG1        0.0661
     30 H          20.9967    1.3605  -10.2973 H       1  LIG1        0.0669
     31 H          28.8630    0.5151   -7.3041 H       1  LIG1        0.0468
     32 H          27.1256    0.9197   -7.1987 H       1  LIG1        0.0468
     33 H          28.0617    1.3257   -8.6644 H       1  LIG1        0.0468
@<TRIPOS>BOND
     1     1     3    1
     2     1    23    1
     3     1    24    1
     4     1    25    1
     5     2     3   ar
     6     2     7   ar
     7     2    19    1
     8     3     4   ar
     9     4     5   ar
    10     4    16    1
    11     5     6   ar
    12     5    26    1
    13     6     7   ar
    14     6    27    1
    15     7     8    1
    16     8     9    1
    17     9    10   ar
    18     9    15   ar
    19    10    11   ar
    20    10    28    1
    21    11    12   ar
    22    11    21    1
    23    12    13   ar
    24    12    29    1
    25    13    14    1
    26    13    15   ar
    27    15    30    1
    28    16    17    2
    29    16    18    1
    30    16    22    2
    31    18    31    1
    32    18    32    1
    33    18    33    1
    34    19    20    3
