50
 OpenBabel02152110423D
Structure written by MMmdl.
 33 34  0  0  1  0  0  0  0  0999 V2000
   27.3390    0.1920  -11.4897 C   0  0  0  0  0  0  0  0  0  0  0  0
   24.8115   -0.0320  -11.4904 C   0  0  0  0  0  0  0  0  0  0  0  0
   26.0318   -0.2159  -10.8097 C   0  0  0  0  0  0  0  0  0  0  0  0
   26.0227   -0.7765   -9.5149 C   0  0  0  0  0  0  0  0  0  0  0  0
   24.7999   -1.0827   -8.9074 C   0  0  0  0  0  0  0  0  0  0  0  0
   23.6041   -0.9361   -9.6042 C   0  0  0  0  0  0  0  0  0  0  0  0
   23.6047   -0.4331  -10.9129 C   0  0  0  0  0  0  0  0  0  0  0  0
   22.4696   -0.3076  -11.6887 O   0  0  0  0  0  0  0  0  0  0  0  0
   21.2371   -0.5820  -11.1896 C   0  0  0  0  0  0  0  0  0  0  0  0
   20.6706   -1.8347  -11.4004 C   0  0  0  0  0  0  0  0  0  0  0  0
   19.4200   -2.1133  -10.8631 C   0  0  0  0  0  0  0  0  0  0  0  0
   18.7409   -1.1381  -10.1380 C   0  0  0  0  0  0  0  0  0  0  0  0
   19.2928    0.1262   -9.9592 C   0  0  0  0  0  0  0  0  0  0  0  0
   18.4329    1.3500   -9.0987 Cl  0  0  0  0  0  0  0  0  0  0  0  0
   20.5510    0.3973  -10.4761 C   0  0  0  0  0  0  0  0  0  0  0  0
   27.5371   -1.0872   -8.5685 S   0  0  0  0  0  0  0  0  0  0  0  0
   27.2050   -2.0060   -7.4766 O   0  0  0  0  0  0  0  0  0  0  0  0
   27.9344    0.6067   -7.8551 C   0  0  0  0  0  0  0  0  0  0  0  0
   24.7666    0.6009  -12.8075 C   0  0  0  0  0  0  0  0  0  0  0  0
   24.7316    1.1052  -13.8442 N   0  0  0  0  0  0  0  0  0  0  0  0
   18.8585   -3.3227  -11.0488 F   0  0  0  0  0  0  0  0  0  0  0  0
   28.6335   -1.4776   -9.4489 O   0  0  0  0  0  0  0  0  0  0  0  0
   28.1506   -0.4789  -11.3067 H   0  0  0  0  0  0  0  0  0  0  0  0
   27.6428    1.1924  -11.1938 H   0  0  0  0  0  0  0  0  0  0  0  0
   27.3039    0.1099  -12.5710 H   0  0  0  0  0  0  0  0  0  0  0  0
   24.7642   -1.4526   -7.8916 H   0  0  0  0  0  0  0  0  0  0  0  0
   22.6854   -1.2290   -9.1184 H   0  0  0  0  0  0  0  0  0  0  0  0
   21.2054   -2.5880  -11.9589 H   0  0  0  0  0  0  0  0  0  0  0  0
   17.7935   -1.3751   -9.7040 H   0  0  0  0  0  0  0  0  0  0  0  0
   20.9967    1.3605  -10.2973 H   0  0  0  0  0  0  0  0  0  0  0  0
   28.8630    0.5151   -7.3041 H   0  0  0  0  0  0  0  0  0  0  0  0
   27.1256    0.9197   -7.1987 H   0  0  0  0  0  0  0  0  0  0  0  0
   28.0617    1.3257   -8.6644 H   0  0  0  0  0  0  0  0  0  0  0  0
  1  3  1  0  0  0  0
  1 23  1  0  0  0  0
  1 24  1  0  0  0  0
  1 25  1  0  0  0  0
  2  3  2  0  0  0  0
  2  7  1  0  0  0  0
  2 19  1  0  0  0  0
  3  4  1  0  0  0  0
  4  5  2  0  0  0  0
  4 16  1  0  0  0  0
  5  6  1  0  0  0  0
  5 26  1  0  0  0  0
  6  7  2  0  0  0  0
  6 27  1  0  0  0  0
  7  8  1  0  0  0  0
  8  9  1  0  0  0  0
  9 10  2  0  0  0  0
  9 15  1  0  0  0  0
 10 11  1  0  0  0  0
 10 28  1  0  0  0  0
 11 12  2  0  0  0  0
 11 21  1  0  0  0  0
 12 13  1  0  0  0  0
 12 29  1  0  0  0  0
 13 14  1  0  0  0  0
 13 15  2  0  0  0  0
 15 30  1  0  0  0  0
 16 17  2  0  0  0  0
 16 18  1  0  0  0  0
 16 22  2  0  0  0  0
 18 31  1  0  0  0  0
 18 32  1  0  0  0  0
 18 33  1  0  0  0  0
 19 20  3  0  0  0  0
M  END
>  <ID>
50

>  <IC50[uM](SPA)>
0.078

$$$$
