@<TRIPOS>MOLECULE
54
 36 37 0 0 0
SMALL
GASTEIGER
****
Structure written by MMmdl.
@<TRIPOS>ATOM
      1 C          27.3739    0.2021  -11.5257 C.3     1  LIG1        0.0716
      2 C          24.8166   -0.0727  -11.5403 C.ar    1  LIG1        0.0668
      3 C          26.0692   -0.2356  -10.8548 C.ar    1  LIG1        0.0146
      4 C          26.0425   -0.7765   -9.5491 C.ar    1  LIG1        0.0939
      5 C          24.8317   -1.0884   -8.9403 C.ar    1  LIG1       -0.0331
      6 C          23.6267   -0.9347   -9.6164 C.ar    1  LIG1       -0.0171
      7 C          23.6229   -0.4433  -10.9232 C.ar    1  LIG1        0.1374
      8 O          22.4601   -0.2995  -11.6659 O.3     1  LIG1       -0.4554
      9 C          21.2313   -0.5849  -11.1558 C.ar    1  LIG1        0.1326
     10 C          20.6536   -1.8315  -11.3749 C.ar    1  LIG1        0.0160
     11 C          19.3870   -2.1109  -10.8587 C.ar    1  LIG1        0.1283
     12 C          18.7018   -1.1325  -10.1312 C.ar    1  LIG1       -0.0079
     13 C          19.2617    0.1200   -9.9382 C.ar    1  LIG1        0.0472
     14 CL         18.4013    1.3488   -9.0779 Cl      1  LIG1       -0.0833
     15 C          20.5319    0.3986  -10.4453 C.ar    1  LIG1       -0.0008
     16 S          27.5413   -1.0868   -8.5786 S.O2    1  LIG1       -0.0055
     17 O          27.1521   -2.0097   -7.4995 O.2     1  LIG1       -0.1696
     18 C          27.9317    0.5862   -7.8045 C.3     1  LIG1        0.0596
     19 C          24.7489    0.5863  -12.9072 C.3     1  LIG1        0.2682
     20 F          18.8205   -3.3078  -11.0704 F       1  LIG1       -0.2053
     21 O          28.6431   -1.4626   -9.4346 O.2     1  LIG1       -0.1696
     22 O          27.8838    1.4066  -10.9877 O.3     1  LIG1       -0.3903
     23 F          25.0512    1.8655  -12.6953 F       1  LIG1       -0.2038
     24 F          25.5439    0.0623  -13.8379 F       1  LIG1       -0.2038
     25 H          28.0990   -0.6021  -11.4607 H       1  LIG1        0.0608
     26 H          27.3066    0.3708  -12.5896 H       1  LIG1        0.0608
     27 H          24.7932   -1.4850   -7.9329 H       1  LIG1        0.0638
     28 H          22.7096   -1.2257   -9.1246 H       1  LIG1        0.0655
     29 H          21.1835   -2.5849  -11.9420 H       1  LIG1        0.0683
     30 H          17.7315   -1.3728   -9.7222 H       1  LIG1        0.0661
     31 H          20.9738    1.3666  -10.2947 H       1  LIG1        0.0669
     32 H          28.9058    0.4975   -7.3383 H       1  LIG1        0.0468
     33 H          27.1560    0.8615   -7.0926 H       1  LIG1        0.0468
     34 H          27.9947    1.3445   -8.5786 H       1  LIG1        0.0468
     35 H          23.7601    0.5443  -13.3706 H       1  LIG1        0.1073
     36 H          28.5336    1.7915  -11.6096 H       1  LIG1        0.2098
@<TRIPOS>BOND
     1     1     3    1
     2     1    22    1
     3     1    25    1
     4     1    26    1
     5     2     3   ar
     6     2     7   ar
     7     2    19    1
     8     3     4   ar
     9     4     5   ar
    10     4    16    1
    11     5     6   ar
    12     5    27    1
    13     6     7   ar
    14     6    28    1
    15     7     8    1
    16     8     9    1
    17     9    10   ar
    18     9    15   ar
    19    10    11   ar
    20    10    29    1
    21    11    12   ar
    22    11    20    1
    23    12    13   ar
    24    12    30    1
    25    13    14    1
    26    13    15   ar
    27    15    31    1
    28    16    17    2
    29    16    18    1
    30    16    21    2
    31    18    32    1
    32    18    33    1
    33    18    34    1
    34    19    23    1
    35    19    24    1
    36    19    35    1
    37    22    36    1
