@<TRIPOS>MOLECULE
57
 38 40 0 0 0
SMALL
GASTEIGER
****
Structure written by MMmdl.
@<TRIPOS>ATOM
      1 O          27.5460    1.5662  -11.2420 O.3     1  LIG1       -0.3871
      2 C          27.1417    0.2930  -11.6885 C.3     1  LIG1        0.0826
      3 C          26.5175    0.3923  -13.0762 C.3     1  LIG1       -0.0185
      4 C          25.0389    0.6092  -12.8376 C.3     1  LIG1       -0.0212
      5 C          24.8019   -0.0696  -11.4987 C.ar    1  LIG1        0.0024
      6 C          26.0104   -0.2420  -10.8202 C.ar    1  LIG1        0.0126
      7 C          26.0127   -0.7818   -9.5245 C.ar    1  LIG1        0.1036
      8 C          24.7956   -1.0891   -8.9065 C.ar    1  LIG1       -0.0327
      9 C          23.6024   -0.9292   -9.5909 C.ar    1  LIG1       -0.0172
     10 C          23.5998   -0.4338  -10.9040 C.ar    1  LIG1        0.1320
     11 O          22.4840   -0.2835  -11.6909 O.3     1  LIG1       -0.4556
     12 C          21.2455   -0.5724  -11.1935 C.ar    1  LIG1        0.1324
     13 C          20.6764   -1.8302  -11.4013 C.ar    1  LIG1        0.0160
     14 C          19.4221   -2.1085  -10.8691 C.ar    1  LIG1        0.1281
     15 F          18.8546   -3.3219  -11.0584 F       1  LIG1       -0.2053
     16 C          18.7416   -1.1432  -10.1420 C.ar    1  LIG1       -0.0088
     17 C          19.2911    0.1307   -9.9727 C.ar    1  LIG1        0.0580
     18 C          18.5770    1.1677   -9.2377 C.1     1  LIG1        0.0994
     19 C          20.5543    0.3924  -10.4659 C.ar    1  LIG1       -0.0018
     20 S          27.5112   -1.0831   -8.6116 S.O2    1  LIG1        0.0911
     21 O          27.2088   -2.0204   -7.5319 O.2     1  LIG1       -0.1612
     22 O          28.5710   -1.4325   -9.5653 O.2     1  LIG1       -0.1612
     23 C          27.9471    0.5775   -7.8607 C.3     1  LIG1        0.5261
     24 F          28.0885    1.5196   -8.8246 F       1  LIG1       -0.1500
     25 F          27.0049    0.9273   -6.9820 F       1  LIG1       -0.1500
     26 N          18.0078    1.9897   -8.6610 N.1     1  LIG1       -0.1909
     27 F          29.1051    0.3677   -7.2549 F       1  LIG1       -0.1500
     28 H          28.3249    1.8309  -11.7526 H       1  LIG1        0.2102
     29 H          27.9812   -0.4065  -11.7115 H       1  LIG1        0.0644
     30 H          26.9660    1.2243  -13.6577 H       1  LIG1        0.0297
     31 H          26.6903   -0.5132  -13.6228 H       1  LIG1        0.0297
     32 H          24.4319    0.1682  -13.6370 H       1  LIG1        0.0315
     33 H          24.7947    1.6584  -12.7761 H       1  LIG1        0.0315
     34 H          24.7771   -1.4712   -7.8943 H       1  LIG1        0.0638
     35 H          22.6821   -1.2262   -9.1101 H       1  LIG1        0.0655
     36 H          21.2086   -2.5941  -11.9485 H       1  LIG1        0.0683
     37 H          17.7930   -1.4100   -9.7040 H       1  LIG1        0.0659
     38 H          21.0142    1.3550  -10.2678 H       1  LIG1        0.0667
@<TRIPOS>BOND
     1     1     2    1
     2     1    28    1
     3     2     3    1
     4     2     6    1
     5     2    29    1
     6     3     4    1
     7     3    30    1
     8     3    31    1
     9     4     5    1
    10     4    32    1
    11     4    33    1
    12     5     6   ar
    13     5    10   ar
    14     6     7   ar
    15     7     8   ar
    16     7    20    1
    17     8     9   ar
    18     8    34    1
    19     9    10   ar
    20     9    35    1
    21    10    11    1
    22    11    12    1
    23    12    13   ar
    24    12    19   ar
    25    13    14   ar
    26    13    36    1
    27    14    15    1
    28    14    16   ar
    29    16    17   ar
    30    16    37    1
    31    17    18    1
    32    17    19   ar
    33    18    26    3
    34    19    38    1
    35    20    21    2
    36    20    22    2
    37    20    23    1
    38    23    24    1
    39    23    25    1
    40    23    27    1
