67
 OpenBabel02152110423D
Structure written by MMmdl.
 32 34  0  0  1  0  0  0  0  0999 V2000
   27.6053    1.5453  -11.1389 O   0  0  0  0  0  0  0  0  0  0  0  0
   27.1460    0.3053  -11.6573 C   0  0  2  0  0  0  0  0  0  0  0  0
   26.5192    0.3788  -13.0582 C   0  0  0  0  0  0  0  0  0  0  0  0
   25.0264    0.5970  -12.8539 C   0  0  0  0  0  0  0  0  0  0  0  0
   24.7883   -0.0701  -11.5149 C   0  0  0  0  0  0  0  0  0  0  0  0
   25.9960   -0.2256  -10.8222 C   0  0  0  0  0  0  0  0  0  0  0  0
   26.0002   -0.7558   -9.5268 C   0  0  0  0  0  0  0  0  0  0  0  0
   24.7931   -1.0825   -8.9108 C   0  0  0  0  0  0  0  0  0  0  0  0
   23.5922   -0.9249   -9.5980 C   0  0  0  0  0  0  0  0  0  0  0  0
   23.5873   -0.4230  -10.9073 C   0  0  0  0  0  0  0  0  0  0  0  0
   22.4670   -0.2684  -11.6890 O   0  0  0  0  0  0  0  0  0  0  0  0
   21.2316   -0.5645  -11.1870 C   0  0  0  0  0  0  0  0  0  0  0  0
   20.5410    0.3964  -10.4526 C   0  0  0  0  0  0  0  0  0  0  0  0
   19.2824    0.1162   -9.9401 C   0  0  0  0  0  0  0  0  0  0  0  0
   18.6064    1.0626   -9.2523 F   0  0  0  0  0  0  0  0  0  0  0  0
   18.7355   -1.1452  -10.1366 C   0  0  0  0  0  0  0  0  0  0  0  0
   19.4128   -2.1057  -10.8754 C   0  0  0  0  0  0  0  0  0  0  0  0
   18.8450   -3.3093  -11.0745 F   0  0  0  0  0  0  0  0  0  0  0  0
   20.6682   -1.8203  -11.4037 C   0  0  0  0  0  0  0  0  0  0  0  0
   27.0666    1.3156  -13.8300 F   0  0  0  0  0  0  0  0  0  0  0  0
   26.6710   -0.8011  -13.6632 F   0  0  0  0  0  0  0  0  0  0  0  0
   27.2485   -0.9801   -8.8196 C   0  0  0  0  0  0  0  0  0  0  0  0
   28.2434   -1.1601   -8.2628 N   0  0  0  0  0  0  0  0  0  0  0  0
   28.3557    1.8615  -11.6733 H   0  0  0  0  0  0  0  0  0  0  0  0
   27.9699   -0.4119  -11.6750 H   0  0  0  0  0  0  0  0  0  0  0  0
   24.7968    1.6599  -12.7799 H   0  0  0  0  0  0  0  0  0  0  0  0
   24.4187    0.1942  -13.6651 H   0  0  0  0  0  0  0  0  0  0  0  0
   24.7714   -1.4809   -7.9067 H   0  0  0  0  0  0  0  0  0  0  0  0
   22.6829   -1.2318   -9.1072 H   0  0  0  0  0  0  0  0  0  0  0  0
   20.9775    1.3594  -10.2558 H   0  0  0  0  0  0  0  0  0  0  0  0
   17.7995   -1.4050   -9.6932 H   0  0  0  0  0  0  0  0  0  0  0  0
   21.2054   -2.5816  -11.9461 H   0  0  0  0  0  0  0  0  0  0  0  0
  1  2  1  0  0  0  0
  1 24  1  0  0  0  0
  2  3  1  0  0  0  0
  2  6  1  0  0  0  0
  2 25  1  6  0  0  0
  3  4  1  0  0  0  0
  3 20  1  0  0  0  0
  3 21  1  0  0  0  0
  4  5  1  0  0  0  0
  4 26  1  0  0  0  0
  4 27  1  0  0  0  0
  5  6  2  0  0  0  0
  5 10  1  0  0  0  0
  6  7  1  0  0  0  0
  7  8  2  0  0  0  0
  7 22  1  0  0  0  0
  8  9  1  0  0  0  0
  8 28  1  0  0  0  0
  9 10  2  0  0  0  0
  9 29  1  0  0  0  0
 10 11  1  0  0  0  0
 11 12  1  0  0  0  0
 12 13  2  0  0  0  0
 12 19  1  0  0  0  0
 13 14  1  0  0  0  0
 13 30  1  0  0  0  0
 14 15  1  0  0  0  0
 14 16  2  0  0  0  0
 16 17  1  0  0  0  0
 16 31  1  0  0  0  0
 17 18  1  0  0  0  0
 17 19  2  0  0  0  0
 19 32  1  0  0  0  0
 22 23  3  0  0  0  0
M  END
>  <ID>
67

>  <IC50[uM](SPA)>
0.035

$$$$
