@<TRIPOS>MOLECULE
7a
 40 42 0 0 0
SMALL
GASTEIGER
****
Structure written by MMmdl.
@<TRIPOS>ATOM
      1 O          27.8986    1.1686  -10.8159 O.3     1  LIG1       -0.3871
      2 C          27.3063    0.0821  -11.4967 C.3     1  LIG1        0.0829
      3 C          26.7543    0.5309  -12.8435 C.3     1  LIG1       -0.0159
      4 C          25.2972    0.0902  -12.9073 C.3     1  LIG1       -0.0122
      5 C          24.9356   -0.2719  -11.4777 C.ar    1  LIG1        0.0052
      6 C          26.1058   -0.4336  -10.7289 C.ar    1  LIG1        0.0128
      7 C          26.0415   -0.9623   -9.4361 C.ar    1  LIG1        0.1005
      8 C          24.8001   -1.2235   -8.8639 C.ar    1  LIG1       -0.0328
      9 C          23.6290   -0.9777   -9.5693 C.ar    1  LIG1       -0.0172
     10 C          23.6838   -0.5129  -10.8898 C.ar    1  LIG1        0.1323
     11 O          22.5621   -0.2401  -11.6444 O.3     1  LIG1       -0.4556
     12 C          21.3109   -0.5861  -11.1952 C.ar    1  LIG1        0.1326
     13 C          20.8154   -1.8606  -11.4562 C.ar    1  LIG1        0.0160
     14 C          19.5537   -2.2243  -11.0029 C.ar    1  LIG1        0.1283
     15 F          19.0721   -3.4508  -11.2863 F       1  LIG1       -0.2053
     16 C          18.7894   -1.3253  -10.2644 C.ar    1  LIG1       -0.0079
     17 C          19.2720   -0.0424  -10.0060 C.ar    1  LIG1        0.0472
     18 CL         18.3130    1.0837   -9.1138 Cl      1  LIG1       -0.0833
     19 C          20.5312    0.3270  -10.4759 C.ar    1  LIG1       -0.0008
     20 S          27.5140   -1.2559   -8.4651 S.O2    1  LIG1        0.0583
     21 O          27.1933   -2.2794   -7.4639 O.2     1  LIG1       -0.1639
     22 O          28.6255   -1.4828   -9.3950 O.2     1  LIG1       -0.1639
     23 C          27.7388    0.4232   -7.6234 C.3     1  LIG1        0.3566
     24 F          27.7231    1.3759   -8.5583 F       1  LIG1       -0.1834
     25 F          26.7479    0.5754   -6.7503 F       1  LIG1       -0.1834
     26 C          24.4377    1.1669  -13.5390 C.3     1  LIG1       -0.0582
     27 H          28.6114    1.5312  -11.3627 H       1  LIG1        0.2102
     28 H          28.0280   -0.7165  -11.6685 H       1  LIG1        0.0644
     29 H          26.8240    1.6206  -12.9191 H       1  LIG1        0.0299
     30 H          27.3250    0.1428  -13.6861 H       1  LIG1        0.0299
     31 H          25.2257   -0.8173  -13.5111 H       1  LIG1        0.0348
     32 H          24.7387   -1.6083   -7.8634 H       1  LIG1        0.0638
     33 H          22.6833   -1.1799   -9.0869 H       1  LIG1        0.0655
     34 H          21.4160   -2.5775  -11.9946 H       1  LIG1        0.0683
     35 H          17.8284   -1.6333   -9.8958 H       1  LIG1        0.0661
     36 H          20.9029    1.3142  -10.2637 H       1  LIG1        0.0669
     37 H          28.6860    0.4534   -7.0836 H       1  LIG1        0.1280
     38 H          23.4853    0.7664  -13.8251 H       1  LIG1        0.0236
     39 H          24.8788    1.5661  -14.4435 H       1  LIG1        0.0236
     40 H          24.2853    1.9768  -12.8310 H       1  LIG1        0.0236
@<TRIPOS>BOND
     1     1     2    1
     2     1    27    1
     3     2     3    1
     4     2     6    1
     5     2    28    1
     6     3     4    1
     7     3    29    1
     8     3    30    1
     9     4     5    1
    10     4    26    1
    11     4    31    1
    12     5     6   ar
    13     5    10   ar
    14     6     7   ar
    15     7     8   ar
    16     7    20    1
    17     8     9   ar
    18     8    32    1
    19     9    10   ar
    20     9    33    1
    21    10    11    1
    22    11    12    1
    23    12    13   ar
    24    12    19   ar
    25    13    14   ar
    26    13    34    1
    27    14    15    1
    28    14    16   ar
    29    16    17   ar
    30    16    35    1
    31    17    18    1
    32    17    19   ar
    33    19    36    1
    34    20    21    2
    35    20    22    2
    36    20    23    1
    37    23    24    1
    38    23    25    1
    39    23    37    1
    40    26    38    1
    41    26    39    1
    42    26    40    1
