@<TRIPOS>MOLECULE
7b
 40 42 0 0 0
SMALL
GASTEIGER
****
Structure written by MMmdl.
@<TRIPOS>ATOM
      1 O          27.5013   -1.6332  -11.4637 O.3     1  LIG1       -0.3871
      2 C          27.1568   -0.2839  -11.3999 C.3     1  LIG1        0.0829
      3 C          26.6886    0.3329  -12.7025 C.3     1  LIG1       -0.0159
      4 C          25.1969    0.0379  -12.7689 C.3     1  LIG1       -0.0122
      5 C          24.8105   -0.1505  -11.3108 C.ar    1  LIG1        0.0052
      6 C          25.9592   -0.2656  -10.5261 C.ar    1  LIG1        0.0128
      7 C          25.8971   -0.6307   -9.1854 C.ar    1  LIG1        0.1005
      8 C          24.6408   -0.8548   -8.6218 C.ar    1  LIG1       -0.0328
      9 C          23.4840   -0.6750   -9.3761 C.ar    1  LIG1       -0.0172
     10 C          23.5563   -0.3395  -10.7327 C.ar    1  LIG1        0.1323
     11 O          22.4601   -0.1883  -11.5559 O.3     1  LIG1       -0.4556
     12 C          21.2105   -0.5483  -11.1220 C.ar    1  LIG1        0.1326
     13 C          20.7413   -1.8392  -11.3555 C.ar    1  LIG1        0.0160
     14 C          19.4788   -2.2099  -10.9043 C.ar    1  LIG1        0.1283
     15 F          19.0081   -3.4457  -11.1600 F       1  LIG1       -0.2053
     16 C          18.6981   -1.3070  -10.1890 C.ar    1  LIG1       -0.0079
     17 C          19.1613   -0.0124   -9.9545 C.ar    1  LIG1        0.0472
     18 CL         18.2132    1.1216   -9.0640 Cl      1  LIG1       -0.0833
     19 C          20.4100    0.3677  -10.4377 C.ar    1  LIG1       -0.0008
     20 S          27.3936   -0.9854   -8.2325 S.O2    1  LIG1        0.0583
     21 O          26.9547   -1.8191   -7.1140 O.2     1  LIG1       -0.1639
     22 O          28.4729   -1.4925   -9.0809 O.2     1  LIG1       -0.1639
     23 C          28.0024    0.7179   -7.6900 C.3     1  LIG1        0.3566
     24 F          28.1774    1.4774   -8.7679 F       1  LIG1       -0.1834
     25 F          27.1642    1.2786   -6.8272 F       1  LIG1       -0.1834
     26 C          24.4433    1.1364  -13.4936 C.3     1  LIG1       -0.0582
     27 H          26.7744   -2.1461  -11.8362 H       1  LIG1        0.2102
     28 H          27.9807    0.3158  -11.0121 H       1  LIG1        0.0644
     29 H          26.8561    1.4115  -12.6450 H       1  LIG1        0.0299
     30 H          27.2249   -0.0134  -13.5849 H       1  LIG1        0.0299
     31 H          25.0496   -0.9005  -13.3053 H       1  LIG1        0.0348
     32 H          24.5542   -1.2332   -7.6122 H       1  LIG1        0.0638
     33 H          22.5271   -0.8333   -8.9186 H       1  LIG1        0.0655
     34 H          21.3595   -2.5583  -11.8687 H       1  LIG1        0.0683
     35 H          17.7450   -1.6335   -9.8144 H       1  LIG1        0.0661
     36 H          20.7599    1.3719  -10.2636 H       1  LIG1        0.0669
     37 H          28.9671    0.5600   -7.2227 H       1  LIG1        0.1280
     38 H          23.4853    0.7668  -13.8302 H       1  LIG1        0.0236
     39 H          24.9806    1.4869  -14.3669 H       1  LIG1        0.0236
     40 H          24.2853    1.9691  -12.8189 H       1  LIG1        0.0236
@<TRIPOS>BOND
     1     1     2    1
     2     1    27    1
     3     2     3    1
     4     2     6    1
     5     2    28    1
     6     3     4    1
     7     3    29    1
     8     3    30    1
     9     4     5    1
    10     4    26    1
    11     4    31    1
    12     5     6   ar
    13     5    10   ar
    14     6     7   ar
    15     7     8   ar
    16     7    20    1
    17     8     9   ar
    18     8    32    1
    19     9    10   ar
    20     9    33    1
    21    10    11    1
    22    11    12    1
    23    12    13   ar
    24    12    19   ar
    25    13    14   ar
    26    13    34    1
    27    14    15    1
    28    14    16   ar
    29    16    17   ar
    30    16    35    1
    31    17    18    1
    32    17    19   ar
    33    19    36    1
    34    20    21    2
    35    20    22    2
    36    20    23    1
    37    23    24    1
    38    23    25    1
    39    23    37    1
    40    26    38    1
    41    26    39    1
    42    26    40    1
