7b
 OpenBabel02152110423D
Structure written by MMmdl.
 40 42  0  0  1  0  0  0  0  0999 V2000
   27.5013   -1.6332  -11.4637 O   0  0  0  0  0  0  0  0  0  0  0  0
   27.1568   -0.2839  -11.3999 C   0  0  1  0  0  0  0  0  0  0  0  0
   26.6886    0.3329  -12.7025 C   0  0  0  0  0  0  0  0  0  0  0  0
   25.1969    0.0379  -12.7689 C   0  0  1  0  0  0  0  0  0  0  0  0
   24.8105   -0.1505  -11.3108 C   0  0  0  0  0  0  0  0  0  0  0  0
   25.9592   -0.2656  -10.5261 C   0  0  0  0  0  0  0  0  0  0  0  0
   25.8971   -0.6307   -9.1854 C   0  0  0  0  0  0  0  0  0  0  0  0
   24.6408   -0.8548   -8.6218 C   0  0  0  0  0  0  0  0  0  0  0  0
   23.4840   -0.6750   -9.3761 C   0  0  0  0  0  0  0  0  0  0  0  0
   23.5563   -0.3395  -10.7327 C   0  0  0  0  0  0  0  0  0  0  0  0
   22.4601   -0.1883  -11.5559 O   0  0  0  0  0  0  0  0  0  0  0  0
   21.2105   -0.5483  -11.1220 C   0  0  0  0  0  0  0  0  0  0  0  0
   20.7413   -1.8392  -11.3555 C   0  0  0  0  0  0  0  0  0  0  0  0
   19.4788   -2.2099  -10.9043 C   0  0  0  0  0  0  0  0  0  0  0  0
   19.0081   -3.4457  -11.1600 F   0  0  0  0  0  0  0  0  0  0  0  0
   18.6981   -1.3070  -10.1890 C   0  0  0  0  0  0  0  0  0  0  0  0
   19.1613   -0.0124   -9.9545 C   0  0  0  0  0  0  0  0  0  0  0  0
   18.2132    1.1216   -9.0640 Cl  0  0  0  0  0  0  0  0  0  0  0  0
   20.4100    0.3677  -10.4377 C   0  0  0  0  0  0  0  0  0  0  0  0
   27.3936   -0.9854   -8.2325 S   0  0  0  0  0  0  0  0  0  0  0  0
   26.9547   -1.8191   -7.1140 O   0  0  0  0  0  0  0  0  0  0  0  0
   28.4729   -1.4925   -9.0809 O   0  0  0  0  0  0  0  0  0  0  0  0
   28.0024    0.7179   -7.6900 C   0  0  0  0  0  0  0  0  0  0  0  0
   28.1774    1.4774   -8.7679 F   0  0  0  0  0  0  0  0  0  0  0  0
   27.1642    1.2786   -6.8272 F   0  0  0  0  0  0  0  0  0  0  0  0
   24.4433    1.1364  -13.4936 C   0  0  0  0  0  0  0  0  0  0  0  0
   26.7744   -2.1461  -11.8362 H   0  0  0  0  0  0  0  0  0  0  0  0
   27.9807    0.3158  -11.0121 H   0  0  0  0  0  0  0  0  0  0  0  0
   26.8561    1.4115  -12.6450 H   0  0  0  0  0  0  0  0  0  0  0  0
   27.2249   -0.0134  -13.5849 H   0  0  0  0  0  0  0  0  0  0  0  0
   25.0496   -0.9005  -13.3053 H   0  0  0  0  0  0  0  0  0  0  0  0
   24.5542   -1.2332   -7.6122 H   0  0  0  0  0  0  0  0  0  0  0  0
   22.5271   -0.8333   -8.9186 H   0  0  0  0  0  0  0  0  0  0  0  0
   21.3595   -2.5583  -11.8687 H   0  0  0  0  0  0  0  0  0  0  0  0
   17.7450   -1.6335   -9.8144 H   0  0  0  0  0  0  0  0  0  0  0  0
   20.7599    1.3719  -10.2636 H   0  0  0  0  0  0  0  0  0  0  0  0
   28.9671    0.5600   -7.2227 H   0  0  0  0  0  0  0  0  0  0  0  0
   23.4853    0.7668  -13.8302 H   0  0  0  0  0  0  0  0  0  0  0  0
   24.9806    1.4869  -14.3669 H   0  0  0  0  0  0  0  0  0  0  0  0
   24.2853    1.9691  -12.8189 H   0  0  0  0  0  0  0  0  0  0  0  0
  1  2  1  0  0  0  0
  1 27  1  0  0  0  0
  2  3  1  0  0  0  0
  2  6  1  0  0  0  0
  2 28  1  1  0  0  0
  3  4  1  0  0  0  0
  3 29  1  0  0  0  0
  3 30  1  0  0  0  0
  4  5  1  0  0  0  0
  4 26  1  0  0  0  0
  4 31  1  6  0  0  0
  5  6  2  0  0  0  0
  5 10  1  0  0  0  0
  6  7  1  0  0  0  0
  7  8  2  0  0  0  0
  7 20  1  0  0  0  0
  8  9  1  0  0  0  0
  8 32  1  0  0  0  0
  9 10  2  0  0  0  0
  9 33  1  0  0  0  0
 10 11  1  0  0  0  0
 11 12  1  0  0  0  0
 12 13  2  0  0  0  0
 12 19  1  0  0  0  0
 13 14  1  0  0  0  0
 13 34  1  0  0  0  0
 14 15  1  0  0  0  0
 14 16  2  0  0  0  0
 16 17  1  0  0  0  0
 16 35  1  0  0  0  0
 17 18  1  0  0  0  0
 17 19  2  0  0  0  0
 19 36  1  0  0  0  0
 20 21  2  0  0  0  0
 20 22  2  0  0  0  0
 20 23  1  0  0  0  0
 23 24  1  0  0  0  0
 23 25  1  0  0  0  0
 23 37  1  0  0  0  0
 26 38  1  0  0  0  0
 26 39  1  0  0  0  0
 26 40  1  0  0  0  0
M  END
>  <ID>
7b

>  <IC50[uM](SPA)>
3.8

$$$$
