@<TRIPOS>MOLECULE
84
 33 35 0 0 0
SMALL
GASTEIGER
****
Structure written by MMmdl.
@<TRIPOS>ATOM
      1 C          27.1519    0.2532  -11.6800 C.3     1  LIG1        0.1205
      2 O          26.5130    0.7426  -12.8412 O.3     1  LIG1       -0.4562
      3 C          25.1762    0.6269  -12.7600 C.2     1  LIG1        0.3435
      4 C          24.8499   -0.0311  -11.4770 C.ar    1  LIG1        0.1093
      5 C          26.0340   -0.2215  -10.7968 C.ar    1  LIG1        0.0322
      6 C          26.0242   -0.7693   -9.5082 C.ar    1  LIG1        0.1018
      7 C          24.8040   -1.0944   -8.9127 C.ar    1  LIG1       -0.0328
      8 C          23.6145   -0.9327   -9.6143 C.ar    1  LIG1       -0.0167
      9 C          23.6192   -0.4161  -10.9195 C.ar    1  LIG1        0.1429
     10 O          22.4850   -0.2560  -11.6856 O.3     1  LIG1       -0.4551
     11 C          21.2418   -0.5594  -11.1731 C.ar    1  LIG1        0.1326
     12 C          20.6764   -1.8121  -11.3952 C.ar    1  LIG1        0.0160
     13 C          19.4207   -2.1058  -10.8708 C.ar    1  LIG1        0.1283
     14 F          18.8527   -3.3055  -11.0912 F       1  LIG1       -0.2053
     15 C          18.7389   -1.1582  -10.1193 C.ar    1  LIG1       -0.0079
     16 C          19.2846    0.1056   -9.9175 C.ar    1  LIG1        0.0472
     17 CL         18.4076    1.3130   -9.0524 Cl      1  LIG1       -0.0833
     18 C          20.5427    0.3982  -10.4386 C.ar    1  LIG1       -0.0008
     19 S          27.5368   -1.0620   -8.6071 S.O2    1  LIG1        0.0583
     20 O          27.2401   -2.0061   -7.5205 O.2     1  LIG1       -0.1639
     21 O          28.5629   -1.4048   -9.5884 O.2     1  LIG1       -0.1639
     22 C          27.9655    0.6177   -7.8733 C.3     1  LIG1        0.3566
     23 F          27.8644    1.5436   -8.8222 F       1  LIG1       -0.1834
     24 F          27.1261    0.8718   -6.8704 F       1  LIG1       -0.1834
     25 O          24.4444    1.0443  -13.6419 O.2     1  LIG1       -0.2448
     26 H          27.7351    1.0614  -11.2340 H       1  LIG1        0.0750
     27 H          27.8490   -0.5450  -11.9454 H       1  LIG1        0.0750
     28 H          24.7810   -1.4921   -7.9071 H       1  LIG1        0.0638
     29 H          22.6871   -1.2236   -9.1360 H       1  LIG1        0.0655
     30 H          21.2083   -2.5725  -11.9463 H       1  LIG1        0.0683
     31 H          17.8032   -1.4332   -9.6854 H       1  LIG1        0.0661
     32 H          20.9779    1.3673  -10.2624 H       1  LIG1        0.0669
     33 H          28.9894    0.5501   -7.5409 H       1  LIG1        0.1280
@<TRIPOS>BOND
     1     1     2    1
     2     1     5    1
     3     1    26    1
     4     1    27    1
     5     2     3    1
     6     3     4    1
     7     3    25    2
     8     4     5   ar
     9     4     9   ar
    10     5     6   ar
    11     6     7   ar
    12     6    19    1
    13     7     8   ar
    14     7    28    1
    15     8     9   ar
    16     8    29    1
    17     9    10    1
    18    10    11    1
    19    11    12   ar
    20    11    18   ar
    21    12    13   ar
    22    12    30    1
    23    13    14    1
    24    13    15   ar
    25    15    16   ar
    26    15    31    1
    27    16    17    1
    28    16    18   ar
    29    18    32    1
    30    19    20    2
    31    19    21    2
    32    19    22    1
    33    22    23    1
    34    22    24    1
    35    22    33    1
