84
 OpenBabel02152110423D
Structure written by MMmdl.
 33 35  0  0  1  0  0  0  0  0999 V2000
   27.1519    0.2532  -11.6800 C   0  0  0  0  0  0  0  0  0  0  0  0
   26.5130    0.7426  -12.8412 O   0  0  0  0  0  0  0  0  0  0  0  0
   25.1762    0.6269  -12.7600 C   0  0  0  0  0  0  0  0  0  0  0  0
   24.8499   -0.0311  -11.4770 C   0  0  0  0  0  0  0  0  0  0  0  0
   26.0340   -0.2215  -10.7968 C   0  0  0  0  0  0  0  0  0  0  0  0
   26.0242   -0.7693   -9.5082 C   0  0  0  0  0  0  0  0  0  0  0  0
   24.8040   -1.0944   -8.9127 C   0  0  0  0  0  0  0  0  0  0  0  0
   23.6145   -0.9327   -9.6143 C   0  0  0  0  0  0  0  0  0  0  0  0
   23.6192   -0.4161  -10.9195 C   0  0  0  0  0  0  0  0  0  0  0  0
   22.4850   -0.2560  -11.6856 O   0  0  0  0  0  0  0  0  0  0  0  0
   21.2418   -0.5594  -11.1731 C   0  0  0  0  0  0  0  0  0  0  0  0
   20.6764   -1.8121  -11.3952 C   0  0  0  0  0  0  0  0  0  0  0  0
   19.4207   -2.1058  -10.8708 C   0  0  0  0  0  0  0  0  0  0  0  0
   18.8527   -3.3055  -11.0912 F   0  0  0  0  0  0  0  0  0  0  0  0
   18.7389   -1.1582  -10.1193 C   0  0  0  0  0  0  0  0  0  0  0  0
   19.2846    0.1056   -9.9175 C   0  0  0  0  0  0  0  0  0  0  0  0
   18.4076    1.3130   -9.0524 Cl  0  0  0  0  0  0  0  0  0  0  0  0
   20.5427    0.3982  -10.4386 C   0  0  0  0  0  0  0  0  0  0  0  0
   27.5368   -1.0620   -8.6071 S   0  0  0  0  0  0  0  0  0  0  0  0
   27.2401   -2.0061   -7.5205 O   0  0  0  0  0  0  0  0  0  0  0  0
   28.5629   -1.4048   -9.5884 O   0  0  0  0  0  0  0  0  0  0  0  0
   27.9655    0.6177   -7.8733 C   0  0  0  0  0  0  0  0  0  0  0  0
   27.8644    1.5436   -8.8222 F   0  0  0  0  0  0  0  0  0  0  0  0
   27.1261    0.8718   -6.8704 F   0  0  0  0  0  0  0  0  0  0  0  0
   24.4444    1.0443  -13.6419 O   0  0  0  0  0  0  0  0  0  0  0  0
   27.7351    1.0614  -11.2340 H   0  0  0  0  0  0  0  0  0  0  0  0
   27.8490   -0.5450  -11.9454 H   0  0  0  0  0  0  0  0  0  0  0  0
   24.7810   -1.4921   -7.9071 H   0  0  0  0  0  0  0  0  0  0  0  0
   22.6871   -1.2236   -9.1360 H   0  0  0  0  0  0  0  0  0  0  0  0
   21.2083   -2.5725  -11.9463 H   0  0  0  0  0  0  0  0  0  0  0  0
   17.8032   -1.4332   -9.6854 H   0  0  0  0  0  0  0  0  0  0  0  0
   20.9779    1.3673  -10.2624 H   0  0  0  0  0  0  0  0  0  0  0  0
   28.9894    0.5501   -7.5409 H   0  0  0  0  0  0  0  0  0  0  0  0
  1  2  1  0  0  0  0
  1  5  1  0  0  0  0
  1 26  1  0  0  0  0
  1 27  1  0  0  0  0
  2  3  1  0  0  0  0
  3  4  1  0  0  0  0
  3 25  2  0  0  0  0
  4  5  2  0  0  0  0
  4  9  1  0  0  0  0
  5  6  1  0  0  0  0
  6  7  2  0  0  0  0
  6 19  1  0  0  0  0
  7  8  1  0  0  0  0
  7 28  1  0  0  0  0
  8  9  2  0  0  0  0
  8 29  1  0  0  0  0
  9 10  1  0  0  0  0
 10 11  1  0  0  0  0
 11 12  2  0  0  0  0
 11 18  1  0  0  0  0
 12 13  1  0  0  0  0
 12 30  1  0  0  0  0
 13 14  1  0  0  0  0
 13 15  2  0  0  0  0
 15 16  1  0  0  0  0
 15 31  1  0  0  0  0
 16 17  1  0  0  0  0
 16 18  2  0  0  0  0
 18 32  1  0  0  0  0
 19 20  2  0  0  0  0
 19 21  2  0  0  0  0
 19 22  1  0  0  0  0
 22 23  1  0  0  0  0
 22 24  1  0  0  0  0
 22 33  1  0  0  0  0
M  END
>  <ID>
84

>  <IC50[uM](SPA)>
2.8

$$$$
