lig_p38a_2c
                    3D
 Structure written by MMmdl.
 45 48  0  0  1  0            999 V2000
   34.5500   34.9800   21.1800 C   0  0  0  0  0  0
   34.0400   38.9800   23.7400 C   0  0  0  0  0  0
   34.8000   37.8100   21.4400 C   0  0  0  0  0  0
   35.2500   37.1300   20.2300 C   0  0  0  0  0  0
   34.3100   37.0400   22.5100 C   0  0  0  0  0  0
   34.8500   39.2100   21.6200 C   0  0  0  0  0  0
   33.6300   34.8400   23.4300 C   0  0  0  0  0  0
   34.4800   39.7900   22.7800 N   0  0  0  0  0  0
   34.3300   33.7800   21.0200 O   0  0  0  0  0  0
   34.2100   35.6200   22.3400 N   0  0  0  0  0  0
   33.9300   37.6500   23.6600 N   0  0  0  0  0  0
   33.6700   39.5700   24.9300 N   0  0  0  0  0  0
   35.6900   37.7200   19.4400 H   0  0  0  0  0  0
   35.2200   39.8600   20.8400 H   0  0  0  0  0  0
   33.4200   35.4900   24.2800 H   0  0  0  0  0  0
   32.7000   34.3800   23.0900 H   0  0  0  0  0  0
   34.3300   34.0600   23.7300 H   0  0  0  0  0  0
   33.7400   40.5700   24.9900 H   0  0  0  0  0  0
   35.1700   35.7800   20.1300 C   0  0  0  0  0  0
   36.5600   33.8100   16.6000 C   0  0  0  0  0  0
   36.9700   33.3500   17.8600 C   0  0  0  0  0  0
   36.5100   34.0000   19.0000 C   0  0  0  0  0  0
   35.6500   35.0900   18.8900 C   0  0  0  0  0  0
   35.2400   35.5500   17.6300 C   0  0  0  0  0  0
   35.7100   34.9000   16.4900 C   0  0  0  0  0  0
   36.9200   33.3100   15.7100 H   0  0  0  0  0  0
   37.6400   32.5100   17.9400 H   0  0  0  0  0  0
   37.0132   33.4465   20.5599 Cl  0  0  0  0  0  0
   34.5800   36.3900   17.5500 H   0  0  0  0  0  0
   35.3900   35.2400   15.5200 H   0  0  0  0  0  0
   31.3000   38.3600   27.6500 C   0  0  0  0  0  0
   31.8000   39.1800   26.4500 C   0  0  0  0  0  0
   33.2100   38.7400   26.0300 C   0  0  0  0  0  0
   34.1900   38.8500   27.2100 C   0  0  0  0  0  0
   33.7000   38.0200   28.4100 C   0  0  0  0  0  0
   32.2900   38.4600   28.8300 O   0  0  0  0  0  0
   31.1900   37.2900   27.3500 H   0  0  0  0  0  0
   30.2900   38.7100   27.9700 H   0  0  0  0  0  0
   31.8100   40.2600   26.7200 H   0  0  0  0  0  0
   31.0900   39.0700   25.5900 H   0  0  0  0  0  0
   33.1800   37.6900   25.6600 H   0  0  0  0  0  0
   35.2000   38.4900   26.8900 H   0  0  0  0  0  0
   34.3000   39.9200   27.5100 H   0  0  0  0  0  0
   33.6900   36.9400   28.1300 H   0  0  0  0  0  0
   34.4100   38.1300   29.2600 H   0  0  0  0  0  0
  1  9  2  0  0  0
  1 10  1  0  0  0
  1 19  1  0  0  0
  2  8  1  0  0  0
  2 11  2  0  0  0
  2 12  1  0  0  0
  3  4  1  0  0  0
  3  5  2  0  0  0
  3  6  1  0  0  0
  4 13  1  0  0  0
  4 19  2  0  0  0
  5 10  1  0  0  0
  5 11  1  0  0  0
  6  8  2  0  0  0
  6 14  1  0  0  0
  7 10  1  0  0  0
  7 15  1  0  0  0
  7 16  1  0  0  0
  7 17  1  0  0  0
 12 18  1  0  0  0
 12 33  1  0  0  0
 19 23  1  0  0  0
 20 21  1  0  0  0
 20 25  2  0  0  0
 20 26  1  0  0  0
 21 22  2  0  0  0
 21 27  1  0  0  0
 22 23  1  0  0  0
 22 28  1  0  0  0
 23 24  2  0  0  0
 24 25  1  0  0  0
 24 29  1  0  0  0
 25 30  1  0  0  0
 31 32  1  0  0  0
 31 36  1  0  0  0
 31 37  1  0  0  0
 31 38  1  0  0  0
 32 33  1  0  0  0
 32 39  1  0  0  0
 32 40  1  0  0  0
 33 34  1  0  0  0
 33 41  1  0  0  0
 34 35  1  0  0  0
 34 42  1  0  0  0
 34 43  1  0  0  0
 35 36  1  0  0  0
 35 44  1  0  0  0
 35 45  1  0  0  0
M  END
> <s_m_entry_id>
1

> <s_m_entry_name>
lig_p38a_2c.1

> <s_pdb_PDB_TITLE>
MX MODEL

> <i_pdb_PDB_Model>
1

> <r_pdb_PDB_CRYST1_a>
146.94

> <r_pdb_PDB_CRYST1_b>
161.2

> <r_pdb_PDB_CRYST1_c>
274.98

> <r_pdb_PDB_CRYST1_alpha>
90

> <r_pdb_PDB_CRYST1_beta>
90

> <r_pdb_PDB_CRYST1_gamma>
90

> <s_pdb_PDB_CRYST1_Space_Group>
P 1

> <i_pdb_PDB_CRYST1_z>
1

> <s_pdb_PDB_format_version>
3.0

> <s_m_Source_Path>
/users/home/dhahn3/projects/PLBenchmarks/PLBenchmarks/data/2019-12-09_p38/03_docked/lig_p38a_2c

> <s_m_Source_File>
lig_p38a_2c.sdf

> <i_m_Source_File_Index>
1

> <chiral flag>
1

> <version>
0

$$$$
