@<TRIPOS>MOLECULE
tmp_images/m0.pdb
 49 53 0 0 0
SMALL
GASTEIGER

@<TRIPOS>ATOM
      1  N         90.2780   48.1450  266.3140 N.pl3   1  LIG1        0.0000
      2  C         91.6170   48.3450  266.6740 C.ar    1  LIG1        0.0000
      3  C         91.9750   49.5380  267.2910 C.ar    1  LIG1        0.0000
      4  C         93.2870   49.8040  267.6900 C.ar    1  LIG1        0.0000
      5  C         94.2730   48.7860  267.5120 C.ar    1  LIG1        0.0000
      6  C         93.8960   47.5470  266.9050 C.ar    1  LIG1        0.0000
      7  C         92.5700   47.3550  266.4700 C.ar    1  LIG1        0.0000
      8  C         93.5910   51.1030  268.3370 C.ar    1  LIG1        0.0000
      9  C         94.5700   51.9490  267.7930 C.ar    1  LIG1        0.0000
     10  C         94.8770   53.1830  268.3630 C.ar    1  LIG1        0.0000
     11  C         94.1740   53.5770  269.5030 C.ar    1  LIG1        0.0000
     12  C         93.2110   52.6780  270.0810 C.ar    1  LIG1        0.0000
     13  C         92.8960   51.4560  269.4910 C.ar    1  LIG1        0.0000
     14  C         94.1950   54.7420  270.3240 C.ar    1  LIG1        0.0000
     15  C         93.3200   54.5040  271.3410 C.ar    1  LIG1        0.0000
     16  N         92.7610   53.2790  271.2410 N.ar    1  LIG1        0.0000
     17  N         94.7930   46.5350  266.7550 N.ar    1  LIG1        0.0000
     18  C         96.0590   46.7460  267.1790 C.ar    1  LIG1        0.0000
     19  C         96.4460   47.9590  267.7360 C.ar    1  LIG1        0.0000
     20  N         95.5620   48.9680  267.9330 N.ar    1  LIG1        0.0000
     21  C         91.8510   52.7310  272.2450 C.3     1  LIG1        0.0000
     22  C         89.7120   47.3500  265.2980 C.2     1  LIG1        0.0000
     23  C         88.4080   46.8220  265.3940 C.3     1  LIG1        0.0000
     24  C         87.8830   46.1010  264.3160 C.2     1  LIG1        0.0000
     25  C         88.6640   45.9360  263.1760 C.2     1  LIG1        0.0000
     26  N         89.9190   46.4310  263.0540 N.pl3   1  LIG1        0.0000
     27  C         90.4190   47.1170  264.1110 C.2     1  LIG1        0.0000
     28  C         87.5850   46.9640  266.5910 C.3     1  LIG1        0.0000
     29  N         86.9350   47.0770  267.5410 N.4     1  LIG1        0.0000
     30  H         89.6020   48.6330  266.8830 H       1  LIG1        0.0000
     31  H         91.2170   50.2910  267.4540 H       1  LIG1        0.0000
     32  H         92.2810   46.4080  266.0450 H       1  LIG1        0.0000
     33  H         95.0910   51.6540  266.8940 H       1  LIG1        0.0000
     34  H         95.6300   53.8260  267.9200 H       1  LIG1        0.0000
     35  H         92.1410   50.8040  269.9240 H       1  LIG1        0.0000
     36  H         94.7920   55.6370  270.2450 H       1  LIG1        0.0000
     37  H         93.0700   55.1130  272.1870 H       1  LIG1        0.0000
     38  H         96.7640   45.9460  267.0080 H       1  LIG1        0.0000
     39  H         97.4650   48.1560  268.0270 H       1  LIG1        0.0000
     40  H         91.7090   53.4650  273.0440 H       1  LIG1        0.0000
     41  H         92.2990   51.8410  272.6820 H       1  LIG1        0.0000
     42  H         90.8900   52.5150  271.7870 H       1  LIG1        0.0000
     43  H         86.8920   45.6690  264.3570 H       1  LIG1        0.0000
     44  H         88.2720   45.3820  262.3430 H       1  LIG1        0.0000
     45  H         91.4170   47.4990  263.9880 H       1  LIG1        0.0000
     46  H         86.5890   45.7380  265.2180 Du      1  LIG1        0.0000
     47  H         92.5410   47.1230  261.6760 Du      1  LIG1        0.0000
     48  H         90.8370   47.1300  261.2990 Du      1  LIG1        0.0000
     49  H         91.5930   45.6480  261.8510 Du      1  LIG1        0.0000
@<TRIPOS>BOND
     1     1     2    1
     2     1    22    1
     3     1    30    1
     4     2     3   ar
     5     2     7   ar
     6     3     4   ar
     7     3    31    1
     8     4     5   ar
     9     4     8    1
    10     5     6   ar
    11     5    20   ar
    12     6     7   ar
    13     6    17   ar
    14     7    32    1
    15     8     9   ar
    16     8    13   ar
    17     9    10   ar
    18     9    33    1
    19    10    11   ar
    20    10    34    1
    21    11    12   ar
    22    11    14   ar
    23    12    13   ar
    24    12    16   ar
    25    13    35    1
    26    14    15   ar
    27    14    36    1
    28    15    16   ar
    29    15    37    1
    30    16    21    1
    31    17    18   ar
    32    18    19   ar
    33    18    38    1
    34    19    20   ar
    35    19    39    1
    36    21    40    1
    37    21    41    1
    38    21    42    1
    39    22    23    1
    40    22    27    2
    41    23    24    1
    42    23    28    1
    43    24    25    2
    44    24    43    1
    45    25    26    1
    46    25    44    1
    47    26    27    1
    48    26    46    1
    49    27    45    1
    50    28    29    1
    51    29    47    1
    52    29    48    1
    53    29    49    1
