@<TRIPOS>MOLECULE
tmp_images/m1.pdb
 49 53 0 0 0
SMALL
GASTEIGER

@<TRIPOS>ATOM
      1  N         90.3250   48.2160  265.9110 N.pl3   1  LIG1        0.0000
      2  C         91.6410   48.3480  266.3680 C.ar    1  LIG1        0.0000
      3  C         91.9420   49.5210  267.0590 C.ar    1  LIG1        0.0000
      4  C         93.1920   49.7580  267.6270 C.ar    1  LIG1        0.0000
      5  C         94.2090   48.7630  267.4940 C.ar    1  LIG1        0.0000
      6  C         93.8920   47.5410  266.8140 C.ar    1  LIG1        0.0000
      7  C         92.6020   47.3490  266.2500 C.ar    1  LIG1        0.0000
      8  C         93.3890   51.0080  268.4030 C.ar    1  LIG1        0.0000
      9  C         94.3860   51.9190  268.0630 C.ar    1  LIG1        0.0000
     10  C         94.5800   53.0960  268.7840 C.ar    1  LIG1        0.0000
     11  C         93.7590   53.3620  269.8870 C.ar    1  LIG1        0.0000
     12  C         92.7500   52.4130  270.2360 C.ar    1  LIG1        0.0000
     13  C         92.5440   51.2470  269.4910 C.ar    1  LIG1        0.0000
     14  C         93.6590   54.4300  270.8320 C.ar    1  LIG1        0.0000
     15  C         92.6610   54.0990  271.7190 C.ar    1  LIG1        0.0000
     16  N         92.1110   52.8880  271.3700 N.ar    1  LIG1        0.0000
     17  N         94.8310   46.5540  266.6950 N.ar    1  LIG1        0.0000
     18  C         96.0580   46.7720  267.2280 C.ar    1  LIG1        0.0000
     19  C         96.3690   47.9680  267.8710 C.ar    1  LIG1        0.0000
     20  N         95.4530   48.9490  268.0270 N.ar    1  LIG1        0.0000
     21  C         91.0010   52.2520  272.0350 C.3     1  LIG1        0.0000
     22  C         89.6290   47.2720  265.1310 C.2     1  LIG1        0.0000
     23  C         90.0660   46.7270  263.9100 C.2     1  LIG1        0.0000
     24  C         89.2900   45.8580  263.1890 N.pl3   1  LIG1        0.0000
     25  C         88.0680   45.5250  263.6660 C.2     1  LIG1        0.0000
     26  N         87.5650   46.0380  264.8540 C.2     1  LIG1        0.0000
     27  C         88.3540   46.9260  265.5830 C.3     1  LIG1        0.0000
     28  C         91.2810   47.0910  263.3520 O.2     1  LIG1        0.0000
     29  N         91.5720   46.7280  261.9950 C.3     1  LIG1        0.0000
     30  H         89.7050   48.8990  266.3310 H       1  LIG1        0.0000
     31  H         91.1740   50.2750  267.1730 H       1  LIG1        0.0000
     32  H         92.3700   46.4310  265.7350 H       1  LIG1        0.0000
     33  H         95.0270   51.7130  267.2180 H       1  LIG1        0.0000
     34  H         95.3510   53.7910  268.4890 H       1  LIG1        0.0000
     35  H         91.7730   50.5400  269.7640 H       1  LIG1        0.0000
     36  H         94.2570   55.3290  270.8710 H       1  LIG1        0.0000
     37  H         92.2750   54.6390  272.5720 H       1  LIG1        0.0000
     38  H         96.7840   45.9840  267.1330 H       1  LIG1        0.0000
     39  H         97.3430   48.1430  268.2970 H       1  LIG1        0.0000
     40  H         90.8590   52.7260  273.0100 H       1  LIG1        0.0000
     41  H         91.2210   51.1970  272.1960 H       1  LIG1        0.0000
     42  H         90.0970   52.3500  271.4350 H       1  LIG1        0.0000
     43  H         86.8920   45.6690  264.3570 Du      1  LIG1        0.0000
     44  H         87.4940   44.8110  263.0830 H       1  LIG1        0.0000
     45  H         87.9670   47.3300  266.5090 H       1  LIG1        0.0000
     46  H         86.5890   45.7380  265.2180 H       1  LIG1        0.0000
     47  H         92.5410   47.1230  261.6760 H       1  LIG1        0.0000
     48  H         90.8370   47.1300  261.2990 H       1  LIG1        0.0000
     49  H         91.5930   45.6480  261.8510 H       1  LIG1        0.0000
@<TRIPOS>BOND
     1     1     2    1
     2     1    22    1
     3     1    30    1
     4     2     3   ar
     5     2     7   ar
     6     3     4   ar
     7     3    31    1
     8     4     5   ar
     9     4     8    1
    10     5     6   ar
    11     5    20   ar
    12     6     7   ar
    13     6    17   ar
    14     7    32    1
    15     8     9   ar
    16     8    13   ar
    17     9    10   ar
    18     9    33    1
    19    10    11   ar
    20    10    34    1
    21    11    12   ar
    22    11    14   ar
    23    12    13   ar
    24    12    16   ar
    25    13    35    1
    26    14    15   ar
    27    14    36    1
    28    15    16   ar
    29    15    37    1
    30    16    21    1
    31    17    18   ar
    32    18    19   ar
    33    18    38    1
    34    19    20   ar
    35    19    39    1
    36    21    40    1
    37    21    41    1
    38    21    42    1
    39    22    23    2
    40    22    27    1
    41    23    24    1
    42    23    28    1
    43    24    25    1
    44    24    43    1
    45    25    26    2
    46    25    44    1
    47    26    27    1
    48    26    46    1
    49    27    45    1
    50    28    29    1
    51    29    47    1
    52    29    48    1
    53    29    49    1
