@<TRIPOS>MOLECULE
tmp_images/m0.pdb
 35 35 0 0 0
SMALL
GASTEIGER

@<TRIPOS>ATOM
      1  C1        -2.5040    3.3330   -3.6000 C.3     1  LIG1        0.0000
      2  N1        -2.9120    2.4070   -2.5550 N.3     1  LIG1        0.0000
      3  C2        -1.7590    1.9000   -1.8770 C.3     1  LIG1        0.0000
      4  C3        -2.0300    0.9460   -0.7960 C.ar    1  LIG1        0.0000
      5  C4        -3.3140    0.5720   -0.5110 C.ar    1  LIG1        0.0000
      6  C5        -3.6330   -0.3420    0.4950 C.ar    1  LIG1        0.0000
      7  C6        -2.6300   -0.8990    1.2380 C.ar    1  LIG1        0.0000
      8  C7        -1.3320   -0.5150    0.9420 C.ar    1  LIG1        0.0000
      9  C8        -1.0020    0.3780   -0.0360 C.ar    1  LIG1        0.0000
     10  C9         0.3550    0.8220   -0.3800 C.3     1  LIG1        0.0000
     11  C10        1.4640   -0.0780    0.0140 C.3     1  LIG1        0.0000
     12  C11        2.7740    0.5810   -0.4530 C.3     1  LIG1        0.0000
     13  C12        1.4150   -1.4540   -0.5620 C.3     1  LIG1        0.0000
     14  O1         1.5860   -0.0880    1.4250 O.3     1  LIG1        0.0000
     15  H1        -1.5850    2.9620   -4.1080 H       1  LIG1        0.0000
     16  H2        -3.3500    3.5230   -4.2770 H       1  LIG1        0.0000
     17  H3        -2.2440    4.2980   -3.1120 H       1  LIG1        0.0000
     18  H4        -3.5970    1.7130   -2.8620 H       1  LIG1        0.0000
     19  H5        -1.1710    2.7680   -1.4980 H       1  LIG1        0.0000
     20  H6        -1.1470    1.3770   -2.6590 H       1  LIG1        0.0000
     21  H7        -4.1660    0.9650   -1.0520 H       1  LIG1        0.0000
     22  H8        -4.6580   -0.6170    0.6960 H       1  LIG1        0.0000
     23  H9        -2.8600   -1.6040    2.0140 H       1  LIG1        0.0000
     24  H10       -0.5530   -0.9590    1.5300 H       1  LIG1        0.0000
     25  H11        0.5240    1.7990    0.1620 H       1  LIG1        0.0000
     26  H12        0.4530    1.0830   -1.4550 H       1  LIG1        0.0000
     27  H13        3.5820    0.4670    0.3060 H       1  LIG1        0.0000
     28  H14        3.0710    0.1790   -1.4390 H       1  LIG1        0.0000
     29  H15        2.6060    1.6700   -0.5890 H       1  LIG1        0.0000
     30  H16        0.4910   -1.6590   -1.1500 H       1  LIG1        0.0000
     31  H17        1.5280   -2.1870    0.2800 H       1  LIG1        0.0000
     32  H18        2.2570   -1.6840   -1.2510 H       1  LIG1        0.0000
     33  H19        1.1380    0.7300    1.7490 H       1  LIG1        0.0000
     34  F1         3.7640   -1.2690    0.9640 Du      1  LIG1        0.0000
     35  F2         4.1460    0.2450   -0.7640 Du      1  LIG1        0.0000
@<TRIPOS>BOND
     1     1     2    1
     2     1    15    1
     3     1    16    1
     4     1    17    1
     5     2     3    1
     6     2    18    1
     7     3     4    1
     8     3    19    1
     9     3    20    1
    10     4     5   ar
    11     4     9   ar
    12     5     6   ar
    13     5    21    1
    14     6     7   ar
    15     6    22    1
    16     7     8   ar
    17     7    23    1
    18     8     9   ar
    19     8    24    1
    20     9    10    1
    21    10    11    1
    22    10    25    1
    23    10    26    1
    24    11    12    1
    25    11    13    1
    26    11    14    1
    27    12    27    1
    28    12    28    1
    29    12    29    1
    30    13    30    1
    31    13    31    1
    32    13    32    1
    33    14    33    1
    34    28    34    1
    35    28    35    1
