@<TRIPOS>MOLECULE
tmp_images/m1.pdb
 35 36 0 0 0
SMALL
GASTEIGER

@<TRIPOS>ATOM
      1  C1        -2.5040    3.3330   -3.6000 Du      1  LIG1        0.0000
      2  N1        -2.9120    2.4070   -2.5550 Du      1  LIG1        0.0000
      3  C2        -2.0680    1.6770   -1.6790 H       1  LIG1        0.0000
      4  C3        -2.1200    0.9810   -0.8500 C.ar    1  LIG1        0.0000
      5  C4        -3.3230    0.7620   -0.2290 C.ar    1  LIG1        0.0000
      6  C5        -3.3710   -0.1190    0.8140 C.ar    1  LIG1        0.0000
      7  C6        -2.2380   -0.7710    1.2320 C.ar    1  LIG1        0.0000
      8  C7        -1.0410   -0.5220    0.5780 C.ar    1  LIG1        0.0000
      9  C8        -0.9450    0.3560   -0.4760 C.ar    1  LIG1        0.0000
     10  C9         0.2990    0.6330   -1.1810 C.3     1  LIG1        0.0000
     11  C10        1.5050    0.2020   -0.7340 N.4     1  LIG1        0.0000
     12  C11        2.1480    0.4940    0.4700 C.3     1  LIG1        0.0000
     13  C12        2.0890   -1.0590   -0.8020 C.3     1  LIG1        0.0000
     14  O1         1.5860   -0.0880    1.4250 Du      1  LIG1        0.0000
     15  H1        -1.5850    2.9620   -4.1080 Du      1  LIG1        0.0000
     16  H2        -3.3500    3.5230   -4.2770 Du      1  LIG1        0.0000
     17  H3        -2.2440    4.2980   -3.1120 Du      1  LIG1        0.0000
     18  H4        -3.5970    1.7130   -2.8620 Du      1  LIG1        0.0000
     19  H5        -1.1710    2.7680   -1.4980 Du      1  LIG1        0.0000
     20  H6        -1.1470    1.3770   -2.6590 Du      1  LIG1        0.0000
     21  H7        -4.2500    1.2540   -0.5230 H       1  LIG1        0.0000
     22  H8        -4.3340   -0.2960    1.3120 H       1  LIG1        0.0000
     23  H9        -2.3210   -1.4630    2.0650 H       1  LIG1        0.0000
     24  H10       -0.1980   -1.0520    0.9380 H       1  LIG1        0.0000
     25  H11        0.3330    1.7590   -1.3550 H       1  LIG1        0.0000
     26  H12        0.1670    0.2640   -2.2530 H       1  LIG1        0.0000
     27  H13        1.7970    0.1320    1.4310 H       1  LIG1        0.0000
     28  H14        3.2610   -0.4630    0.0020 C.3     1  LIG1        0.0000
     29  H15        2.4870    1.5530    0.5080 H       1  LIG1        0.0000
     30  H16        0.4910   -1.6590   -1.1500 Du      1  LIG1        0.0000
     31  H17        1.7010   -1.9100   -0.2130 H       1  LIG1        0.0000
     32  H18        2.5130   -1.3870   -1.7770 H       1  LIG1        0.0000
     33  H19        1.1380    0.7300    1.7490 Du      1  LIG1        0.0000
     34  F1         3.7640   -1.2690    0.9640 F       1  LIG1        0.0000
     35  F2         4.1460    0.2450   -0.7640 F       1  LIG1        0.0000
@<TRIPOS>BOND
     1     1     2    1
     2     1    15    1
     3     1    16    1
     4     1    17    1
     5     2     3    1
     6     2    18    1
     7     3     4    1
     8     3    19    1
     9     3    20    1
    10     4     5   ar
    11     4     9   ar
    12     5     6   ar
    13     5    21    1
    14     6     7   ar
    15     6    22    1
    16     7     8   ar
    17     7    23    1
    18     8     9   ar
    19     8    24    1
    20     9    10    1
    21    10    11    1
    22    10    25    1
    23    10    26    1
    24    11    12    1
    25    11    13    1
    26    11    14    1
    27    12    27    1
    28    12    28    1
    29    12    29    1
    30    13    28    1
    31    13    30    1
    32    13    31    1
    33    13    32    1
    34    14    33    1
    35    28    34    1
    36    28    35    1
