@<TRIPOS>MOLECULE
lig_41
 49 52 0 0 0
SMALL
GASTEIGER

@<TRIPOS>ATOM
      1 O           3.8100  -50.0800    6.4300 O.co2   1  LIG1       -0.5431
      2 C           2.9400  -49.1700    6.5100 C.2     1  LIG1        0.0881
      3 OXT         3.2800  -47.9700    6.6700 O.co2   1  LIG1       -0.5431
      4 CA          1.5200  -49.6100    6.4100 C.ar    1  LIG1        0.0661
      5 N           1.0100  -51.1700    6.8300 N.ar    1  LIG1       -0.3530
      6 H           1.5300  -51.9500    7.1800 H       1  LIG1        0.1659
      7 C          -0.6500  -51.0200    6.4700 C.ar    1  LIG1        0.0472
      8 C          -1.7400  -51.8800    6.5500 C.ar    1  LIG1       -0.0378
      9 H          -1.5900  -52.9000    6.8900 H       1  LIG1        0.0638
     10 C          -3.0100  -51.4600    6.1900 C.ar    1  LIG1       -0.0598
     11 H          -3.8500  -52.1300    6.2600 H       1  LIG1        0.0618
     12 C          -3.1800  -50.1500    5.7300 C.ar    1  LIG1       -0.0611
     13 H          -4.1700  -49.8000    5.4500 H       1  LIG1        0.0618
     14 C          -2.1000  -49.2800    5.6300 C.ar    1  LIG1       -0.0523
     15 H          -2.2500  -48.2700    5.2600 H       1  LIG1        0.0624
     16 C          -0.8300  -49.7000    6.0100 C.ar    1  LIG1        0.0035
     17 C           0.3700  -48.9100    5.9700 C.ar    1  LIG1       -0.0131
     18 C           0.4000  -47.4900    5.5200 C.3     1  LIG1       -0.0220
     19 H           1.1900  -47.3900    4.7800 H       1  LIG1        0.0315
     20 H          -0.5600  -47.2600    5.0600 H       1  LIG1        0.0315
     21 C           0.6500  -46.4800    6.6000 C.3     1  LIG1       -0.0146
     22 H           0.6300  -45.5000    6.1300 H       1  LIG1        0.0301
     23 H           1.6500  -46.6700    6.9900 H       1  LIG1        0.0301
     24 C          -0.2800  -46.4300    7.7600 C.3     1  LIG1        0.0899
     25 H          -0.0300  -45.5900    8.4000 H       1  LIG1        0.0696
     26 H          -0.1900  -47.3600    8.3300 H       1  LIG1        0.0696
     27 O          -1.5900  -46.2900    7.3300 O.3     1  LIG1       -0.4919
     28 C          -2.6600  -46.2600    8.1900 C.ar    1  LIG1        0.1207
     29 C          -2.6200  -46.9200    9.3900 C.ar    1  LIG1       -0.0165
     30 H          -1.7400  -47.4900    9.6800 H       1  LIG1        0.0655
     31 C          -3.7300  -46.8600   10.2300 C.ar    1  LIG1       -0.0159
     32 H          -3.7000  -47.3800   11.1800 H       1  LIG1        0.0655
     33 C          -4.8700  -46.1400    9.8700 C.ar    1  LIG1        0.1287
     34 O          -5.9900  -46.0900   10.7500 O.3     1  LIG1       -0.4560
     35 C          -4.8900  -45.4700    8.6600 C.ar    1  LIG1       -0.0159
     36 H          -5.7700  -44.9100    8.3700 H       1  LIG1        0.0655
     37 C          -3.7800  -45.5300    7.8200 C.ar    1  LIG1       -0.0165
     38 H          -3.8000  -45.0000    6.8700 H       1  LIG1        0.0655
     39 C          -9.2000  -43.8500    9.3600 C.ar    1  LIG1       -0.0615
     40 H         -10.0400  -43.2600    8.9900 H       1  LIG1        0.0618
     41 C          -9.1100  -45.2100    9.0600 C.ar    1  LIG1       -0.0583
     42 H          -9.8900  -45.6800    8.4600 H       1  LIG1        0.0619
     43 C          -8.0400  -45.9600    9.5300 C.ar    1  LIG1       -0.0193
     44 H          -7.9700  -47.0200    9.2900 H       1  LIG1        0.0654
     45 C          -7.0400  -45.3500   10.2900 C.ar    1  LIG1        0.1284
     46 C          -7.1300  -43.9900   10.5900 C.ar    1  LIG1       -0.0193
     47 H          -6.3500  -43.5200   11.1900 H       1  LIG1        0.0654
     48 C          -8.2000  -43.2400   10.1200 C.ar    1  LIG1       -0.0583
     49 H          -8.2700  -42.1800   10.3600 H       1  LIG1        0.0619
@<TRIPOS>BOND
     1    18    19    1
     2    18    20    1
     3    14    15    1
     4    12    13    1
     5    17    18    1
     6    18    21    1
     7    12    14   ar
     8    14    16   ar
     9    10    12   ar
    10    16    17   ar
    11     4    17   ar
    12     7    16   ar
    13    21    22    1
    14    10    11    1
    15     8    10   ar
    16     2     4    1
    17     4     5   ar
    18     1     2   ar
    19     7     8   ar
    20     5     7   ar
    21     2     3   ar
    22     8     9    1
    23    21    23    1
    24    21    24    1
    25     5     6    1
    26    37    38    1
    27    24    27    1
    28    27    28    1
    29    24    26    1
    30    24    25    1
    31    28    37   ar
    32    35    37   ar
    33    28    29   ar
    34    35    36    1
    35    41    42    1
    36    33    35   ar
    37    39    40    1
    38    39    41   ar
    39    41    43   ar
    40    43    44    1
    41    39    48   ar
    42    29    30    1
    43    29    31   ar
    44    43    45   ar
    45    31    33   ar
    46    33    34    1
    47    48    49    1
    48    46    48   ar
    49    31    32    1
    50    45    46   ar
    51    34    45    1
    52    46    47    1
