@<TRIPOS>MOLECULE
lig_63
 43 45 0 0 0
SMALL
GASTEIGER

@<TRIPOS>ATOM
      1 O           3.8100  -50.0800    6.4300 O.co2   1  LIG1       -0.5441
      2 C           2.9400  -49.1700    6.5100 C.2     1  LIG1        0.0785
      3 O           3.2800  -47.9700    6.6700 O.co2   1  LIG1       -0.5441
      4 C           1.5200  -49.6100    6.4100 C.ar    1  LIG1        0.0388
      5 S           1.0100  -51.1700    6.8300 S.2     1  LIG1       -0.0867
      6 C          -0.6500  -51.0200    6.4700 C.ar    1  LIG1        0.0216
      7 C          -1.7400  -51.8800    6.5500 C.ar    1  LIG1       -0.0290
      8 H          -1.5900  -52.9000    6.8900 H       1  LIG1        0.0643
      9 C          -3.0100  -51.4600    6.1900 C.ar    1  LIG1        0.0421
     10 CL         -4.3800  -52.5500    6.3100 Cl      1  LIG1       -0.0835
     11 C          -3.1800  -50.1500    5.7300 C.ar    1  LIG1       -0.0428
     12 H          -4.1700  -49.8000    5.4500 H       1  LIG1        0.0632
     13 C          -2.1000  -49.2800    5.6300 C.ar    1  LIG1       -0.0519
     14 H          -2.2500  -48.2700    5.2600 H       1  LIG1        0.0624
     15 C          -0.8300  -49.7000    6.0100 C.ar    1  LIG1       -0.0069
     16 C           0.3700  -48.9100    5.9700 C.ar    1  LIG1       -0.0236
     17 C           0.4000  -47.4900    5.5200 C.3     1  LIG1       -0.0229
     18 H           1.2600  -47.3600    4.8600 H       1  LIG1        0.0315
     19 H          -0.5200  -47.2900    4.9700 H       1  LIG1        0.0315
     20 C           0.5100  -46.4700    6.6100 C.3     1  LIG1       -0.0146
     21 H           0.4000  -45.4900    6.1500 H       1  LIG1        0.0301
     22 H           1.5100  -46.5600    7.0400 H       1  LIG1        0.0301
     23 C          -0.4600  -46.5400    7.7500 C.3     1  LIG1        0.0899
     24 H          -0.1700  -45.8100    8.5100 H       1  LIG1        0.0696
     25 H          -0.4300  -47.5400    8.1800 H       1  LIG1        0.0696
     26 O          -1.7400  -46.2700    7.3100 O.3     1  LIG1       -0.4919
     27 C          -2.8100  -46.1800    8.1600 C.ar    1  LIG1        0.1211
     28 C          -2.8500  -46.9000    9.3300 C.ar    1  LIG1       -0.0156
     29 H          -2.0300  -47.5500    9.6000 H       1  LIG1        0.0657
     30 C          -3.9600  -46.7800   10.1600 C.ar    1  LIG1       -0.0284
     31 C          -4.0000  -47.5200   11.3800 C.3     1  LIG1       -0.0382
     32 H          -3.0900  -48.1100   11.4800 H       1  LIG1        0.0278
     33 H          -4.8700  -48.1800   11.3700 H       1  LIG1        0.0278
     34 H          -4.0800  -46.8300   12.2300 H       1  LIG1        0.0278
     35 C          -5.0200  -45.9400    9.8300 C.ar    1  LIG1        0.0470
     36 CL         -6.4100  -45.8100   10.8900 Cl      1  LIG1       -0.0830
     37 C          -4.9700  -45.2200    8.6500 C.ar    1  LIG1       -0.0284
     38 C          -6.0600  -44.3700    8.2900 C.3     1  LIG1       -0.0382
     39 H          -6.8300  -44.4100    9.0500 H       1  LIG1        0.0278
     40 H          -6.4800  -44.6900    7.3300 H       1  LIG1        0.0278
     41 H          -5.7000  -43.3400    8.1900 H       1  LIG1        0.0278
     42 C          -3.8600  -45.3400    7.8100 C.ar    1  LIG1       -0.0156
     43 H          -3.8200  -44.7700    6.9000 H       1  LIG1        0.0657
@<TRIPOS>BOND
     1    17    18    1
     2    17    19    1
     3    13    14    1
     4    11    12    1
     5    16    17    1
     6    17    20    1
     7    11    13   ar
     8    13    15   ar
     9     9    11   ar
    10    15    16   ar
    11     4    16   ar
    12     6    15   ar
    13    20    21    1
    14     9    10    1
    15     7     9   ar
    16     2     4    1
    17     4     5   ar
    18     1     2   ar
    19     6     7   ar
    20     5     6   ar
    21     2     3   ar
    22     7     8    1
    23    20    22    1
    24    20    23    1
    25    42    43    1
    26    23    26    1
    27    26    27    1
    28    38    40    1
    29    23    25    1
    30    23    24    1
    31    27    42   ar
    32    37    42   ar
    33    27    28   ar
    34    38    41    1
    35    37    38    1
    36    38    39    1
    37    35    37   ar
    38    28    29    1
    39    28    30   ar
    40    30    35   ar
    41    35    36    1
    42    30    31    1
    43    31    33    1
    44    31    32    1
    45    31    34    1
