@<TRIPOS>MOLECULE
lig_50
 44 46 0 0 0
SMALL
GASTEIGER

@<TRIPOS>ATOM
      1 O           3.8100  -50.0800    6.4300 O.co2   1  LIG1       -0.5431
      2 C           2.9400  -49.1700    6.5100 C.2     1  LIG1        0.0881
      3 OXT         3.2800  -47.9700    6.6700 O.co2   1  LIG1       -0.5431
      4 CA          1.5200  -49.6100    6.4100 C.ar    1  LIG1        0.0661
      5 N           1.0100  -51.1700    6.8300 N.ar    1  LIG1       -0.3530
      6 H           1.5300  -51.9500    7.1800 H       1  LIG1        0.1659
      7 C          -0.6500  -51.0200    6.4700 C.ar    1  LIG1        0.0486
      8 C          -1.7400  -51.8800    6.5500 C.ar    1  LIG1       -0.0377
      9 H          -1.5900  -52.9000    6.8900 H       1  LIG1        0.0638
     10 C          -3.0100  -51.4600    6.1900 C.ar    1  LIG1       -0.0584
     11 H          -3.8500  -52.1300    6.2600 H       1  LIG1        0.0619
     12 C          -3.1800  -50.1500    5.7300 C.ar    1  LIG1       -0.0427
     13 H          -4.1700  -49.8000    5.4500 H       1  LIG1        0.0632
     14 C          -2.1000  -49.2800    5.6300 C.ar    1  LIG1        0.0504
     15 CL         -2.3400  -47.6500    5.0400 Cl      1  LIG1       -0.0829
     16 C          -0.8300  -49.7000    6.0100 C.ar    1  LIG1        0.0218
     17 C           0.3700  -48.9100    5.9700 C.ar    1  LIG1       -0.0117
     18 C           0.4000  -47.4900    5.5200 C.3     1  LIG1       -0.0219
     19 H           1.1900  -47.3900    4.7800 H       1  LIG1        0.0315
     20 H          -0.5600  -47.2600    5.0600 H       1  LIG1        0.0315
     21 C           0.6500  -46.4800    6.6000 C.3     1  LIG1       -0.0146
     22 H           0.6300  -45.5000    6.1300 H       1  LIG1        0.0301
     23 H           1.6500  -46.6700    6.9900 H       1  LIG1        0.0301
     24 C          -0.2800  -46.4300    7.7600 C.3     1  LIG1        0.0899
     25 H          -0.0300  -45.5900    8.4000 H       1  LIG1        0.0696
     26 H          -0.1900  -47.3600    8.3300 H       1  LIG1        0.0696
     27 O          -1.5900  -46.2900    7.3300 O.3     1  LIG1       -0.4919
     28 C          -2.6600  -46.2600    8.1900 C.ar    1  LIG1        0.1211
     29 C          -2.6200  -46.9200    9.3900 C.ar    1  LIG1       -0.0156
     30 H          -1.7400  -47.4900    9.6800 H       1  LIG1        0.0657
     31 C          -3.7300  -46.8600   10.2300 C.ar    1  LIG1       -0.0284
     32 C          -3.7000  -47.5500   11.4800 C.3     1  LIG1       -0.0382
     33 H          -2.7400  -48.0500   11.6000 H       1  LIG1        0.0278
     34 C          -4.8700  -46.1400    9.8700 C.ar    1  LIG1        0.0470
     35 H          -4.5000  -48.2800   11.5200 H       1  LIG1        0.0278
     36 CL         -6.2500  -46.0800   10.9500 Cl      1  LIG1       -0.0830
     37 C          -4.8900  -45.4700    8.6600 C.ar    1  LIG1       -0.0284
     38 C          -6.0500  -44.7300    8.2700 C.3     1  LIG1       -0.0382
     39 H          -3.8300  -46.8300   12.2900 H       1  LIG1        0.0278
     40 H          -6.8100  -44.8000    9.0500 H       1  LIG1        0.0278
     41 H          -3.8000  -45.0000    6.8700 H       1  LIG1        0.0657
     42 H          -6.4500  -45.1400    7.3400 H       1  LIG1        0.0278
     43 C          -3.7800  -45.5300    7.8200 C.ar    1  LIG1       -0.0156
     44 H          -5.7800  -43.6900    8.1300 H       1  LIG1        0.0278
@<TRIPOS>BOND
     1    18    19    1
     2    14    15    1
     3    18    20    1
     4    12    13    1
     5    17    18    1
     6    18    21    1
     7    12    14   ar
     8    14    16   ar
     9    10    12   ar
    10    16    17   ar
    11     4    17   ar
    12     7    16   ar
    13    21    22    1
    14    10    11    1
    15     8    10   ar
    16     2     4    1
    17     4     5   ar
    18     1     2   ar
    19     7     8   ar
    20     5     7   ar
    21     2     3   ar
    22     8     9    1
    23    21    23    1
    24    21    24    1
    25     5     6    1
    26    41    43    1
    27    24    27    1
    28    27    28    1
    29    38    42    1
    30    24    26    1
    31    24    25    1
    32    28    43   ar
    33    37    43   ar
    34    38    44    1
    35    28    29   ar
    36    37    38    1
    37    38    40    1
    38    34    37   ar
    39    29    30    1
    40    29    31   ar
    41    31    34   ar
    42    34    36    1
    43    31    32    1
    44    32    35    1
    45    32    33    1
    46    32    39    1
