@<TRIPOS>MOLECULE
lig_53
 44 46 0 0 0
SMALL
GASTEIGER

@<TRIPOS>ATOM
      1 O           3.8100  -50.0800    6.4300 O.co2   1  LIG1       -0.5431
      2 C           2.9400  -49.1700    6.5100 C.2     1  LIG1        0.0881
      3 OXT         3.2800  -47.9700    6.6700 O.co2   1  LIG1       -0.5431
      4 CA          1.5200  -49.6100    6.4100 C.ar    1  LIG1        0.0661
      5 N           1.0100  -51.1700    6.8300 N.ar    1  LIG1       -0.3530
      6 H           1.5300  -51.9500    7.1800 H       1  LIG1        0.1659
      7 C          -0.6500  -51.0200    6.4700 C.ar    1  LIG1        0.0486
      8 C          -1.7400  -51.8800    6.5500 C.ar    1  LIG1       -0.0194
      9 H          -1.5900  -52.9000    6.8900 H       1  LIG1        0.0653
     10 C          -3.0100  -51.4600    6.1900 C.ar    1  LIG1        0.0430
     11 CL         -4.3800  -52.5500    6.3100 Cl      1  LIG1       -0.0835
     12 C          -3.1800  -50.1500    5.7300 C.ar    1  LIG1       -0.0427
     13 H          -4.1700  -49.8000    5.4500 H       1  LIG1        0.0632
     14 C          -2.1000  -49.2800    5.6300 C.ar    1  LIG1       -0.0509
     15 H          -2.2500  -48.2700    5.2600 H       1  LIG1        0.0625
     16 C          -0.8300  -49.7000    6.0100 C.ar    1  LIG1        0.0036
     17 C           0.3700  -48.9100    5.9700 C.ar    1  LIG1       -0.0131
     18 C           0.4000  -47.4900    5.5200 C.3     1  LIG1       -0.0220
     19 H           1.1900  -47.3900    4.7800 H       1  LIG1        0.0315
     20 H          -0.5600  -47.2600    5.0600 H       1  LIG1        0.0315
     21 C           0.6500  -46.4800    6.6000 C.3     1  LIG1       -0.0146
     22 H           0.6300  -45.5000    6.1300 H       1  LIG1        0.0301
     23 H           1.6500  -46.6700    6.9900 H       1  LIG1        0.0301
     24 C          -0.2800  -46.4300    7.7600 C.3     1  LIG1        0.0899
     25 H           0.0400  -45.6500    8.4500 H       1  LIG1        0.0696
     26 H          -0.2700  -47.4000    8.2700 H       1  LIG1        0.0696
     27 O          -1.5700  -46.1600    7.3400 O.3     1  LIG1       -0.4919
     28 C          -2.6400  -46.0900    8.1900 C.ar    1  LIG1        0.1211
     29 C          -2.6100  -46.7400    9.4100 C.ar    1  LIG1       -0.0156
     30 H          -1.7400  -47.3100    9.7000 H       1  LIG1        0.0657
     31 C          -3.7100  -46.6500   10.2500 C.ar    1  LIG1       -0.0284
     32 C          -3.6900  -47.3100   11.5100 C.3     1  LIG1       -0.0382
     33 H          -4.6400  -47.1300   12.0400 H       1  LIG1        0.0278
     34 H          -2.8700  -46.9300   12.1100 H       1  LIG1        0.0278
     35 H          -3.5700  -48.3800   11.3600 H       1  LIG1        0.0278
     36 C          -4.8400  -45.9100    9.8800 C.ar    1  LIG1        0.0470
     37 CL         -6.2200  -45.8100   10.9600 Cl      1  LIG1       -0.0830
     38 C          -4.8600  -45.2600    8.6600 C.ar    1  LIG1       -0.0284
     39 C          -6.0100  -44.5100    8.2600 C.3     1  LIG1       -0.0382
     40 H          -6.7600  -44.5600    9.0400 H       1  LIG1        0.0278
     41 H          -6.4100  -44.9200    7.3400 H       1  LIG1        0.0278
     42 H          -5.7200  -43.4700    8.1000 H       1  LIG1        0.0278
     43 C          -3.7500  -45.3500    7.8200 C.ar    1  LIG1       -0.0156
     44 H          -3.7600  -44.8400    6.8600 H       1  LIG1        0.0657
@<TRIPOS>BOND
     1    18    19    1
     2    18    20    1
     3    14    15    1
     4    12    13    1
     5    17    18    1
     6    18    21    1
     7    12    14   ar
     8    14    16   ar
     9    10    12   ar
    10    16    17   ar
    11     4    17   ar
    12     7    16   ar
    13    21    22    1
    14    10    11    1
    15     8    10   ar
    16     2     4    1
    17     4     5   ar
    18     1     2   ar
    19     7     8   ar
    20     5     7   ar
    21     2     3   ar
    22     8     9    1
    23    21    23    1
    24    21    24    1
    25     5     6    1
    26    43    44    1
    27    24    27    1
    28    27    28    1
    29    39    41    1
    30    24    26    1
    31    24    25    1
    32    28    43   ar
    33    38    43   ar
    34    39    42    1
    35    28    29   ar
    36    38    39    1
    37    39    40    1
    38    36    38   ar
    39    29    30    1
    40    29    31   ar
    41    31    36   ar
    42    36    37    1
    43    31    32    1
    44    32    35    1
    45    32    33    1
    46    32    34    1
