@<TRIPOS>MOLECULE
lig_40
 49 52 0 0 0
SMALL
GASTEIGER

@<TRIPOS>ATOM
      1 O           3.8100  -50.0800    6.4300 O.co2   1  LIG1       -0.5431
      2 C           2.9400  -49.1700    6.5100 C.2     1  LIG1        0.0881
      3 OXT         3.2800  -47.9700    6.6700 O.co2   1  LIG1       -0.5431
      4 CA          1.5200  -49.6100    6.4100 C.ar    1  LIG1        0.0661
      5 N           1.0100  -51.1700    6.8300 N.ar    1  LIG1       -0.3530
      6 H           1.5300  -51.9500    7.1800 H       1  LIG1        0.1659
      7 C          -0.6500  -51.0200    6.4700 C.ar    1  LIG1        0.0472
      8 C          -1.7400  -51.8800    6.5500 C.ar    1  LIG1       -0.0378
      9 H          -1.5900  -52.9000    6.8900 H       1  LIG1        0.0638
     10 C          -3.0100  -51.4600    6.1900 C.ar    1  LIG1       -0.0598
     11 H          -3.8500  -52.1300    6.2600 H       1  LIG1        0.0618
     12 C          -3.1800  -50.1500    5.7300 C.ar    1  LIG1       -0.0611
     13 H          -4.1700  -49.8000    5.4500 H       1  LIG1        0.0618
     14 C          -2.1000  -49.2800    5.6300 C.ar    1  LIG1       -0.0523
     15 H          -2.2500  -48.2700    5.2600 H       1  LIG1        0.0624
     16 C          -0.8300  -49.7000    6.0100 C.ar    1  LIG1        0.0035
     17 C           0.3700  -48.9100    5.9700 C.ar    1  LIG1       -0.0131
     18 C           0.4000  -47.4900    5.5200 C.3     1  LIG1       -0.0220
     19 H           1.1900  -47.3900    4.7800 H       1  LIG1        0.0315
     20 H          -0.5600  -47.2600    5.0600 H       1  LIG1        0.0315
     21 C           0.6500  -46.4800    6.6000 C.3     1  LIG1       -0.0146
     22 H           0.6300  -45.5000    6.1300 H       1  LIG1        0.0301
     23 H           1.6500  -46.6700    6.9900 H       1  LIG1        0.0301
     24 C          -0.2800  -46.4300    7.7600 C.3     1  LIG1        0.0899
     25 H          -0.0300  -45.5900    8.4000 H       1  LIG1        0.0696
     26 H          -0.1900  -47.3600    8.3300 H       1  LIG1        0.0696
     27 O          -1.5900  -46.2900    7.3300 O.3     1  LIG1       -0.4918
     28 C          -2.6600  -46.2600    8.1900 C.ar    1  LIG1        0.1240
     29 C          -2.6200  -46.9200    9.3900 C.ar    1  LIG1       -0.0197
     30 H          -1.7400  -47.4900    9.6800 H       1  LIG1        0.0654
     31 C          -3.7300  -46.8600   10.2300 C.ar    1  LIG1       -0.0548
     32 H          -3.7000  -47.3800   11.1800 H       1  LIG1        0.0620
     33 C          -4.8700  -46.1400    9.8700 C.ar    1  LIG1       -0.0191
     34 H          -5.7200  -46.1000   10.5400 H       1  LIG1        0.0654
     35 C          -4.8900  -45.4700    8.6600 C.ar    1  LIG1        0.1319
     36 O          -6.0500  -44.7300    8.2700 O.3     1  LIG1       -0.4559
     37 C          -3.7800  -45.5300    7.8200 C.ar    1  LIG1        0.0224
     38 H          -3.8000  -45.0000    6.8700 H       1  LIG1        0.0691
     39 C          -5.7800  -42.8600    4.5800 C.ar    1  LIG1       -0.0615
     40 H          -5.7100  -42.3700    3.6100 H       1  LIG1        0.0618
     41 C          -5.3900  -42.1800    5.7300 C.ar    1  LIG1       -0.0583
     42 H          -5.0100  -41.1700    5.6600 H       1  LIG1        0.0619
     43 C          -5.4800  -42.8100    6.9700 C.ar    1  LIG1       -0.0193
     44 H          -5.1700  -42.2800    7.8700 H       1  LIG1        0.0654
     45 C          -5.9600  -44.1200    7.0600 C.ar    1  LIG1        0.1284
     46 C          -6.3600  -44.7900    5.9100 C.ar    1  LIG1       -0.0193
     47 H          -6.7300  -45.8100    5.9800 H       1  LIG1        0.0654
     48 C          -6.2700  -44.1700    4.6700 C.ar    1  LIG1       -0.0583
     49 H          -6.5700  -44.6900    3.7700 H       1  LIG1        0.0619
@<TRIPOS>BOND
     1    39    40    1
     2    48    49    1
     3    39    48   ar
     4    39    41   ar
     5    46    48   ar
     6    18    19    1
     7    18    20    1
     8    14    15    1
     9    12    13    1
    10    17    18    1
    11    18    21    1
    12    12    14   ar
    13    14    16   ar
    14    41    42    1
    15    10    12   ar
    16    41    43   ar
    17    46    47    1
    18    45    46   ar
    19    16    17   ar
    20     4    17   ar
    21     7    16   ar
    22    21    22    1
    23    10    11    1
    24     8    10   ar
    25     2     4    1
    26     4     5   ar
    27     1     2   ar
    28     7     8   ar
    29     5     7   ar
    30     2     3   ar
    31     8     9    1
    32    21    23    1
    33    21    24    1
    34     5     6    1
    35    37    38    1
    36    43    45   ar
    37    43    44    1
    38    36    45    1
    39    24    27    1
    40    27    28    1
    41    24    26    1
    42    24    25    1
    43    28    37   ar
    44    35    37   ar
    45    28    29   ar
    46    35    36    1
    47    33    35   ar
    48    29    30    1
    49    29    31   ar
    50    31    33   ar
    51    33    34    1
    52    31    32    1
