@<TRIPOS>MOLECULE
lig_56
 47 49 0 0 0
SMALL
GASTEIGER

@<TRIPOS>ATOM
      1 O           3.8100  -50.0800    6.4300 O.co2   1  LIG1       -0.5431
      2 C           2.9400  -49.1700    6.5100 C.2     1  LIG1        0.0883
      3 O           3.2800  -47.9700    6.6700 O.co2   1  LIG1       -0.5431
      4 C           1.5200  -49.6100    6.4100 C.ar    1  LIG1        0.0684
      5 N           1.0100  -51.1700    6.8300 N.ar    1  LIG1       -0.3418
      6 C           1.7400  -52.2800    7.3300 C.3     1  LIG1        0.0125
      7 H           2.7900  -52.0000    7.4300 H       1  LIG1        0.0456
      8 H           1.6600  -53.1200    6.6400 H       1  LIG1        0.0456
      9 H           1.3500  -52.5700    8.3000 H       1  LIG1        0.0456
     10 C          -0.6500  -51.0200    6.4700 C.ar    1  LIG1        0.0496
     11 C          -1.7400  -51.8800    6.5500 C.ar    1  LIG1       -0.0376
     12 H          -1.5900  -52.9000    6.8900 H       1  LIG1        0.0638
     13 C          -3.0100  -51.4600    6.1900 C.ar    1  LIG1       -0.0598
     14 H          -3.8500  -52.1300    6.2600 H       1  LIG1        0.0618
     15 C          -3.1800  -50.1500    5.7300 C.ar    1  LIG1       -0.0611
     16 H          -4.1700  -49.8000    5.4500 H       1  LIG1        0.0618
     17 C          -2.1000  -49.2800    5.6300 C.ar    1  LIG1       -0.0523
     18 H          -2.2500  -48.2700    5.2600 H       1  LIG1        0.0624
     19 C          -0.8300  -49.7000    6.0100 C.ar    1  LIG1        0.0037
     20 C           0.3700  -48.9100    5.9700 C.ar    1  LIG1       -0.0129
     21 C           0.4000  -47.4900    5.5200 C.3     1  LIG1       -0.0220
     22 H           1.2700  -47.3600    4.8700 H       1  LIG1        0.0315
     23 H          -0.5100  -47.3000    4.9500 H       1  LIG1        0.0315
     24 C           0.4900  -46.4700    6.6100 C.3     1  LIG1       -0.0146
     25 H           0.2700  -45.5000    6.1700 H       1  LIG1        0.0301
     26 H           1.5100  -46.4800    6.9900 H       1  LIG1        0.0301
     27 C          -0.4200  -46.6200    7.8000 C.3     1  LIG1        0.0899
     28 H          -0.0900  -45.9500    8.5900 H       1  LIG1        0.0696
     29 H          -0.3700  -47.6500    8.1600 H       1  LIG1        0.0696
     30 O          -1.7200  -46.3200    7.4600 O.3     1  LIG1       -0.4919
     31 C          -2.7400  -46.3000    8.3700 C.ar    1  LIG1        0.1211
     32 C          -2.6500  -47.0100    9.5500 C.ar    1  LIG1       -0.0156
     33 H          -1.7700  -47.6000    9.7700 H       1  LIG1        0.0657
     34 C          -3.7100  -46.9600   10.4500 C.ar    1  LIG1       -0.0284
     35 C          -3.6300  -47.6900   11.6700 C.3     1  LIG1       -0.0382
     36 H          -2.6800  -48.2200   11.7200 H       1  LIG1        0.0278
     37 H          -4.4500  -48.4100   11.7200 H       1  LIG1        0.0278
     38 H          -3.7000  -47.0000   12.5100 H       1  LIG1        0.0278
     39 C          -4.8600  -46.2000   10.1800 C.ar    1  LIG1        0.0470
     40 CL         -6.1800  -46.1500   11.3300 Cl      1  LIG1       -0.0830
     41 C          -4.9300  -45.4900    8.9900 C.ar    1  LIG1       -0.0284
     42 C          -6.0900  -44.7100    8.6900 C.3     1  LIG1       -0.0382
     43 H          -6.8100  -44.8000    9.5100 H       1  LIG1        0.0278
     44 H          -6.5500  -45.0800    7.7700 H       1  LIG1        0.0278
     45 H          -5.8100  -43.6700    8.5700 H       1  LIG1        0.0278
     46 C          -3.8700  -45.5400    8.0900 C.ar    1  LIG1       -0.0156
     47 H          -3.9200  -44.9800    7.1700 H       1  LIG1        0.0657
@<TRIPOS>BOND
     1    21    22    1
     2    21    23    1
     3    17    18    1
     4    15    16    1
     5    20    21    1
     6    21    24    1
     7    15    17   ar
     8    17    19   ar
     9    13    15   ar
    10    19    20   ar
    11     4    20   ar
    12    10    19   ar
    13    24    25    1
    14    13    14    1
    15    11    13   ar
    16     2     4    1
    17     4     5   ar
    18     1     2   ar
    19    10    11   ar
    20     5    10   ar
    21     2     3   ar
    22    11    12    1
    23    24    26    1
    24    24    27    1
    25     6     8    1
    26     5     6    1
    27    46    47    1
    28     6     7    1
    29     6     9    1
    30    27    30    1
    31    30    31    1
    32    42    44    1
    33    27    29    1
    34    27    28    1
    35    31    46   ar
    36    41    46   ar
    37    31    32   ar
    38    42    45    1
    39    41    42    1
    40    42    43    1
    41    39    41   ar
    42    32    33    1
    43    32    34   ar
    44    34    39   ar
    45    39    40    1
    46    34    35    1
    47    35    36    1
    48    35    37    1
    49    35    38    1
