@<TRIPOS>MOLECULE
lig_66
 43 46 0 0 0
SMALL
GASTEIGER

@<TRIPOS>ATOM
      1 O           3.8100  -50.0800    6.4300 O.co2   1  LIG1       -0.5441
      2 C           2.9400  -49.1700    6.5100 C.2     1  LIG1        0.0785
      3 O           3.2800  -47.9700    6.6700 O.co2   1  LIG1       -0.5441
      4 C           1.5200  -49.6100    6.4100 C.ar    1  LIG1        0.0389
      5 S           1.0100  -51.1700    6.8300 S.2     1  LIG1       -0.0853
      6 C          -0.6500  -51.0200    6.4700 C.ar    1  LIG1        0.0385
      7 C          -1.7400  -51.8800    6.5500 C.ar    1  LIG1        0.0553
      8 CL         -1.5000  -53.5300    7.1100 Cl      1  LIG1       -0.0824
      9 C          -3.0100  -51.4600    6.1900 C.ar    1  LIG1       -0.0423
     10 H          -3.8500  -52.1300    6.2600 H       1  LIG1        0.0632
     11 C          -3.1800  -50.1500    5.7300 C.ar    1  LIG1       -0.0597
     12 H          -4.1700  -49.8000    5.4500 H       1  LIG1        0.0618
     13 C          -2.1000  -49.2800    5.6300 C.ar    1  LIG1       -0.0531
     14 H          -2.2500  -48.2700    5.2600 H       1  LIG1        0.0624
     15 C          -0.8300  -49.7000    6.0100 C.ar    1  LIG1       -0.0056
     16 C           0.3700  -48.9100    5.9700 C.ar    1  LIG1       -0.0236
     17 C           0.4000  -47.4900    5.5200 C.3     1  LIG1       -0.0229
     18 H           1.1900  -47.3900    4.7800 H       1  LIG1        0.0315
     19 H          -0.5600  -47.2600    5.0600 H       1  LIG1        0.0315
     20 C           0.6500  -46.4800    6.6000 C.3     1  LIG1       -0.0146
     21 H           0.5300  -45.4900    6.1500 H       1  LIG1        0.0301
     22 H           1.6900  -46.6000    6.9200 H       1  LIG1        0.0301
     23 C          -0.2000  -46.5200    7.8200 C.3     1  LIG1        0.0899
     24 H           0.1100  -45.7300    8.5100 H       1  LIG1        0.0696
     25 H          -0.0800  -47.4900    8.3100 H       1  LIG1        0.0696
     26 O          -1.5300  -46.3400    7.5000 O.3     1  LIG1       -0.4913
     27 C          -2.5400  -46.3700    8.4300 C.ar    1  LIG1        0.1282
     28 C          -2.3300  -46.9200    9.6700 C.ar    1  LIG1       -0.0193
     29 H          -1.3700  -47.3500    9.9300 H       1  LIG1        0.0654
     30 C          -3.3800  -46.9300   10.5900 C.ar    1  LIG1       -0.0577
     31 H          -3.2300  -47.3600   11.5700 H       1  LIG1        0.0619
     32 C          -4.6300  -46.3800   10.2700 C.ar    1  LIG1       -0.0538
     33 H          -5.4300  -46.4000   10.9900 H       1  LIG1        0.0624
     34 C          -4.8200  -45.8300    9.0100 C.ar    1  LIG1       -0.0144
     35 C          -3.7700  -45.8200    8.0900 C.ar    1  LIG1        0.0238
     36 C          -3.9700  -45.2400    6.8200 C.ar    1  LIG1       -0.0505
     37 H          -3.1600  -45.2200    6.1100 H       1  LIG1        0.0625
     38 C          -5.2000  -44.6900    6.4600 C.ar    1  LIG1       -0.0611
     39 H          -5.3400  -44.2500    5.4900 H       1  LIG1        0.0618
     40 C          -6.2600  -44.7000    7.3800 C.ar    1  LIG1       -0.0612
     41 H          -7.2100  -44.2800    7.1000 H       1  LIG1        0.0618
     42 C          -6.0800  -45.2600    8.6400 C.ar    1  LIG1       -0.0539
     43 H          -6.9000  -45.2700    9.3400 H       1  LIG1        0.0624
@<TRIPOS>BOND
     1    17    18    1
     2    17    19    1
     3    13    14    1
     4    11    12    1
     5    38    39    1
     6    16    17    1
     7    17    20    1
     8    11    13   ar
     9    13    15   ar
    10     9    11   ar
    11    15    16   ar
    12     4    16   ar
    13     6    15   ar
    14    36    37    1
    15    20    21    1
    16     9    10    1
    17     7     9   ar
    18     2     4    1
    19     4     5   ar
    20     1     2   ar
    21    36    38   ar
    22    38    40   ar
    23     6     7   ar
    24     5     6   ar
    25     2     3   ar
    26     7     8    1
    27    20    22    1
    28    20    23    1
    29    35    36   ar
    30    40    41    1
    31    40    42   ar
    32    23    26    1
    33    26    27    1
    34    23    25    1
    35    23    24    1
    36    27    35   ar
    37    34    35   ar
    38    27    28   ar
    39    34    42   ar
    40    42    43    1
    41    32    34   ar
    42    28    29    1
    43    28    30   ar
    44    30    32   ar
    45    32    33    1
    46    30    31    1
