@<TRIPOS>MOLECULE
lig_31
 41 43 0 0 0
SMALL
GASTEIGER

@<TRIPOS>ATOM
      1 O           3.8100  -50.0800    6.4300 O.co2   1  LIG1       -0.5431
      2 C           2.9400  -49.1700    6.5100 C.2     1  LIG1        0.0881
      3 OXT         3.2800  -47.9700    6.6700 O.co2   1  LIG1       -0.5431
      4 CA          1.5200  -49.6100    6.4100 C.ar    1  LIG1        0.0661
      5 N           1.0100  -51.1700    6.8300 N.ar    1  LIG1       -0.3530
      6 H           1.5300  -51.9500    7.1800 H       1  LIG1        0.1659
      7 C          -0.6500  -51.0200    6.4700 C.ar    1  LIG1        0.0472
      8 C          -1.7400  -51.8800    6.5500 C.ar    1  LIG1       -0.0378
      9 H          -1.5900  -52.9000    6.8900 H       1  LIG1        0.0638
     10 C          -3.0100  -51.4600    6.1900 C.ar    1  LIG1       -0.0598
     11 H          -3.8500  -52.1300    6.2600 H       1  LIG1        0.0618
     12 C          -3.1800  -50.1500    5.7300 C.ar    1  LIG1       -0.0611
     13 H          -4.1700  -49.8000    5.4500 H       1  LIG1        0.0618
     14 C          -2.1000  -49.2800    5.6300 C.ar    1  LIG1       -0.0523
     15 H          -2.2500  -48.2700    5.2600 H       1  LIG1        0.0624
     16 C          -0.8300  -49.7000    6.0100 C.ar    1  LIG1        0.0035
     17 C           0.3700  -48.9100    5.9700 C.ar    1  LIG1       -0.0131
     18 C           0.4000  -47.4900    5.5200 C.3     1  LIG1       -0.0220
     19 H           1.2300  -47.3700    4.8200 H       1  LIG1        0.0315
     20 H          -0.5400  -47.2800    5.0200 H       1  LIG1        0.0315
     21 C           0.5800  -46.4700    6.6100 C.3     1  LIG1       -0.0146
     22 H           0.4600  -45.4900    6.1500 H       1  LIG1        0.0301
     23 H           1.6000  -46.5800    6.9800 H       1  LIG1        0.0301
     24 C          -0.3300  -46.5300    7.7900 C.3     1  LIG1        0.0899
     25 H          -0.0600  -45.7300    8.4900 H       1  LIG1        0.0696
     26 H          -0.2200  -47.5000    8.2800 H       1  LIG1        0.0696
     27 O          -1.6500  -46.3700    7.4000 O.3     1  LIG1       -0.4919
     28 C          -2.6800  -46.2900    8.2900 C.ar    1  LIG1        0.1210
     29 C          -2.6200  -46.9400    9.5000 C.ar    1  LIG1       -0.0083
     30 H          -1.7400  -47.5100    9.7700 H       1  LIG1        0.0660
     31 C          -3.7000  -46.8300   10.3800 C.ar    1  LIG1        0.0583
     32 C          -3.6400  -47.4900   11.6400 C.3     1  LIG1        0.4175
     33 F          -2.4300  -48.1600   11.7600 F       1  LIG1       -0.1659
     34 F          -4.6800  -48.4000   11.7400 F       1  LIG1       -0.1659
     35 F          -3.7500  -46.5500   12.6600 F       1  LIG1       -0.1659
     36 C          -4.8300  -46.0900   10.0400 C.ar    1  LIG1       -0.0499
     37 H          -5.6600  -46.0200   10.7300 H       1  LIG1        0.0623
     38 C          -4.8800  -45.4500    8.8200 C.ar    1  LIG1       -0.0578
     39 H          -5.7600  -44.8700    8.5400 H       1  LIG1        0.0619
     40 C          -3.8000  -45.5400    7.9400 C.ar    1  LIG1       -0.0199
     41 H          -3.8400  -45.0400    6.9900 H       1  LIG1        0.0654
@<TRIPOS>BOND
     1    18    19    1
     2    18    20    1
     3    14    15    1
     4    12    13    1
     5    17    18    1
     6    18    21    1
     7    12    14   ar
     8    14    16   ar
     9    10    12   ar
    10    16    17   ar
    11     4    17   ar
    12     7    16   ar
    13    21    22    1
    14    10    11    1
    15     8    10   ar
    16     2     4    1
    17     4     5   ar
    18     1     2   ar
    19     7     8   ar
    20     5     7   ar
    21     2     3   ar
    22     8     9    1
    23    21    23    1
    24    21    24    1
    25     5     6    1
    26    40    41    1
    27    24    27    1
    28    27    28    1
    29    24    26    1
    30    24    25    1
    31    28    40   ar
    32    38    40   ar
    33    28    29   ar
    34    38    39    1
    35    36    38   ar
    36    29    30    1
    37    29    31   ar
    38    31    36   ar
    39    36    37    1
    40    31    32    1
    41    32    34    1
    42    32    33    1
    43    32    35    1
