@<TRIPOS>MOLECULE
lig_54
 44 47 0 0 0
SMALL
GASTEIGER

@<TRIPOS>ATOM
      1 O           3.8100  -50.0800    6.4300 O.co2   1  LIG1       -0.5431
      2 C           2.9400  -49.1700    6.5100 C.2     1  LIG1        0.0881
      3 OXT         3.2800  -47.9700    6.6700 O.co2   1  LIG1       -0.5431
      4 CA          1.5200  -49.6100    6.4100 C.ar    1  LIG1        0.0661
      5 N           1.0100  -51.1700    6.8300 N.ar    1  LIG1       -0.3530
      6 H           1.5300  -51.9500    7.1800 H       1  LIG1        0.1659
      7 C          -0.6500  -51.0200    6.4700 C.ar    1  LIG1        0.0486
      8 C          -1.7400  -51.8800    6.5500 C.ar    1  LIG1       -0.0194
      9 H          -1.5900  -52.9000    6.8900 H       1  LIG1        0.0653
     10 C          -3.0100  -51.4600    6.1900 C.ar    1  LIG1        0.0430
     11 CL         -4.3800  -52.5500    6.3100 Cl      1  LIG1       -0.0835
     12 C          -3.1800  -50.1500    5.7300 C.ar    1  LIG1       -0.0427
     13 H          -4.1700  -49.8000    5.4500 H       1  LIG1        0.0632
     14 C          -2.1000  -49.2800    5.6300 C.ar    1  LIG1       -0.0509
     15 H          -2.2500  -48.2700    5.2600 H       1  LIG1        0.0625
     16 C          -0.8300  -49.7000    6.0100 C.ar    1  LIG1        0.0036
     17 C           0.3700  -48.9100    5.9700 C.ar    1  LIG1       -0.0131
     18 C           0.4000  -47.4900    5.5200 C.3     1  LIG1       -0.0220
     19 H           1.1900  -47.3900    4.7800 H       1  LIG1        0.0315
     20 H          -0.5600  -47.2600    5.0600 H       1  LIG1        0.0315
     21 C           0.6500  -46.4800    6.6000 C.3     1  LIG1       -0.0146
     22 H           0.5300  -45.4900    6.1500 H       1  LIG1        0.0301
     23 H           1.6900  -46.6000    6.9200 H       1  LIG1        0.0301
     24 C          -0.2000  -46.5200    7.8200 C.3     1  LIG1        0.0899
     25 H           0.1100  -45.7300    8.5100 H       1  LIG1        0.0696
     26 H          -0.0800  -47.4900    8.3100 H       1  LIG1        0.0696
     27 O          -1.5300  -46.3400    7.5000 O.3     1  LIG1       -0.4913
     28 C          -2.5500  -46.4800    8.4100 C.ar    1  LIG1        0.1282
     29 C          -2.3800  -47.2600    9.5300 C.ar    1  LIG1       -0.0193
     30 H          -1.4400  -47.7700    9.7100 H       1  LIG1        0.0654
     31 C          -3.4400  -47.3800   10.4300 C.ar    1  LIG1       -0.0577
     32 H          -3.3200  -47.9800   11.3100 H       1  LIG1        0.0619
     33 C          -4.6500  -46.7300   10.2000 C.ar    1  LIG1       -0.0538
     34 H          -5.4700  -46.8300   10.9100 H       1  LIG1        0.0624
     35 C          -4.8100  -45.9500    9.0700 C.ar    1  LIG1       -0.0144
     36 C          -3.7500  -45.8300    8.1700 C.ar    1  LIG1        0.0238
     37 C          -3.9100  -45.0200    7.0200 C.ar    1  LIG1       -0.0505
     38 H          -3.0900  -44.9200    6.3200 H       1  LIG1        0.0625
     39 C          -5.1100  -44.3600    6.7600 C.ar    1  LIG1       -0.0611
     40 H          -5.2200  -43.7500    5.8800 H       1  LIG1        0.0618
     41 C          -6.1800  -44.4900    7.6500 C.ar    1  LIG1       -0.0612
     42 H          -7.1100  -43.9800    7.4600 H       1  LIG1        0.0618
     43 C          -6.0400  -45.2700    8.8000 C.ar    1  LIG1       -0.0539
     44 H          -6.8700  -45.3700    9.4900 H       1  LIG1        0.0624
@<TRIPOS>BOND
     1    18    19    1
     2    18    20    1
     3    14    15    1
     4    12    13    1
     5    17    18    1
     6    18    21    1
     7    12    14   ar
     8    14    16   ar
     9    10    12   ar
    10    39    40    1
    11    16    17   ar
    12     4    17   ar
    13     7    16   ar
    14    21    22    1
    15    10    11    1
    16     8    10   ar
    17    37    38    1
    18     2     4    1
    19     4     5   ar
    20     1     2   ar
    21     7     8   ar
    22     5     7   ar
    23     2     3   ar
    24     8     9    1
    25    21    23    1
    26    21    24    1
    27    37    39   ar
    28    39    41   ar
    29     5     6    1
    30    36    37   ar
    31    41    42    1
    32    24    27    1
    33    27    28    1
    34    41    43   ar
    35    24    26    1
    36    24    25    1
    37    28    36   ar
    38    35    36   ar
    39    28    29   ar
    40    35    43   ar
    41    43    44    1
    42    33    35   ar
    43    29    30    1
    44    29    31   ar
    45    31    33   ar
    46    33    34    1
    47    31    32    1
