@<TRIPOS>MOLECULE
lig_36
 44 46 0 0 0
SMALL
GASTEIGER

@<TRIPOS>ATOM
      1 O           3.8100  -50.0800    6.4300 O.co2   1  LIG1       -0.5431
      2 C           2.9400  -49.1700    6.5100 C.2     1  LIG1        0.0881
      3 OXT         3.2800  -47.9700    6.6700 O.co2   1  LIG1       -0.5431
      4 CA          1.5200  -49.6100    6.4100 C.ar    1  LIG1        0.0661
      5 N           1.0100  -51.1700    6.8300 N.ar    1  LIG1       -0.3530
      6 H           1.5300  -51.9500    7.1800 H       1  LIG1        0.1659
      7 C          -0.6500  -51.0200    6.4700 C.ar    1  LIG1        0.0472
      8 C          -1.7400  -51.8800    6.5500 C.ar    1  LIG1       -0.0378
      9 H          -1.5900  -52.9000    6.8900 H       1  LIG1        0.0638
     10 C          -3.0100  -51.4600    6.1900 C.ar    1  LIG1       -0.0598
     11 H          -3.8500  -52.1300    6.2600 H       1  LIG1        0.0618
     12 C          -3.1800  -50.1500    5.7300 C.ar    1  LIG1       -0.0611
     13 H          -4.1700  -49.8000    5.4500 H       1  LIG1        0.0618
     14 C          -2.1000  -49.2800    5.6300 C.ar    1  LIG1       -0.0523
     15 H          -2.2500  -48.2700    5.2600 H       1  LIG1        0.0624
     16 C          -0.8300  -49.7000    6.0100 C.ar    1  LIG1        0.0035
     17 C           0.3700  -48.9100    5.9700 C.ar    1  LIG1       -0.0131
     18 C           0.4000  -47.4900    5.5200 C.3     1  LIG1       -0.0220
     19 H           1.2600  -47.3600    4.8600 H       1  LIG1        0.0315
     20 H          -0.5200  -47.2900    4.9700 H       1  LIG1        0.0315
     21 C           0.5100  -46.4700    6.6100 C.3     1  LIG1       -0.0146
     22 H           0.4000  -45.4900    6.1500 H       1  LIG1        0.0301
     23 H           1.5100  -46.5600    7.0400 H       1  LIG1        0.0301
     24 C          -0.4600  -46.5400    7.7500 C.3     1  LIG1        0.0899
     25 H          -0.2400  -45.7400    8.4600 H       1  LIG1        0.0696
     26 H          -0.3500  -47.5000    8.2500 H       1  LIG1        0.0696
     27 O          -1.7500  -46.4000    7.2900 O.3     1  LIG1       -0.4919
     28 C          -2.8400  -46.3400    8.1300 C.ar    1  LIG1        0.1208
     29 C          -2.8200  -46.9800    9.3500 C.ar    1  LIG1       -0.0154
     30 H          -1.9500  -47.5500    9.6600 H       1  LIG1        0.0657
     31 C          -3.9400  -46.8900   10.1700 C.ar    1  LIG1       -0.0259
     32 C          -3.9400  -47.5500   11.4300 C.3     1  LIG1       -0.0290
     33 H          -2.9900  -48.0600   11.5700 H       1  LIG1        0.0311
     34 C          -5.0000  -48.5000   11.4800 C.3     1  LIG1       -0.0612
     35 H          -4.8600  -49.2400   10.6900 H       1  LIG1        0.0233
     36 H          -5.9600  -47.9900   11.3400 H       1  LIG1        0.0233
     37 H          -5.0000  -49.0100   12.4400 H       1  LIG1        0.0233
     38 H          -4.0800  -46.8200   12.2300 H       1  LIG1        0.0311
     39 C          -5.0700  -46.1700    9.7800 C.ar    1  LIG1        0.0444
     40 CL         -6.4700  -46.0800   10.8300 Cl      1  LIG1       -0.0833
     41 C          -5.0700  -45.5300    8.5500 C.ar    1  LIG1       -0.0397
     42 H          -5.9400  -44.9700    8.2300 H       1  LIG1        0.0633
     43 C          -3.9500  -45.6100    7.7200 C.ar    1  LIG1       -0.0185
     44 H          -3.9400  -45.1000    6.7700 H       1  LIG1        0.0654
@<TRIPOS>BOND
     1    18    19    1
     2    18    20    1
     3    14    15    1
     4    12    13    1
     5    17    18    1
     6    18    21    1
     7    12    14   ar
     8    14    16   ar
     9    10    12   ar
    10    16    17   ar
    11     4    17   ar
    12     7    16   ar
    13    21    22    1
    14    10    11    1
    15     8    10   ar
    16     2     4    1
    17     4     5   ar
    18     1     2   ar
    19     7     8   ar
    20     5     7   ar
    21     2     3   ar
    22     8     9    1
    23    21    23    1
    24    21    24    1
    25    43    44    1
    26     5     6    1
    27    24    27    1
    28    27    28    1
    29    28    43   ar
    30    41    43   ar
    31    24    26    1
    32    24    25    1
    33    28    29   ar
    34    41    42    1
    35    39    41   ar
    36    29    30    1
    37    29    31   ar
    38    31    39   ar
    39    39    40    1
    40    31    32    1
    41    34    35    1
    42    34    36    1
    43    32    34    1
    44    32    33    1
    45    32    38    1
    46    34    37    1
