@<TRIPOS>MOLECULE
lig_29
 41 43 0 0 0
SMALL
GASTEIGER

@<TRIPOS>ATOM
      1 O           3.8100  -50.0800    6.4300 O.co2   1  LIG1       -0.5431
      2 C           2.9400  -49.1700    6.5100 C.2     1  LIG1        0.0881
      3 OXT         3.2800  -47.9700    6.6700 O.co2   1  LIG1       -0.5431
      4 CA          1.5200  -49.6100    6.4100 C.ar    1  LIG1        0.0661
      5 N           1.0100  -51.1700    6.8300 N.ar    1  LIG1       -0.3530
      6 H           1.5300  -51.9500    7.1800 H       1  LIG1        0.1659
      7 C          -0.6500  -51.0200    6.4700 C.ar    1  LIG1        0.0472
      8 C          -1.7400  -51.8800    6.5500 C.ar    1  LIG1       -0.0378
      9 H          -1.5900  -52.9000    6.8900 H       1  LIG1        0.0638
     10 C          -3.0100  -51.4600    6.1900 C.ar    1  LIG1       -0.0598
     11 H          -3.8500  -52.1300    6.2600 H       1  LIG1        0.0618
     12 C          -3.1800  -50.1500    5.7300 C.ar    1  LIG1       -0.0611
     13 H          -4.1700  -49.8000    5.4500 H       1  LIG1        0.0618
     14 C          -2.1000  -49.2800    5.6300 C.ar    1  LIG1       -0.0523
     15 H          -2.2500  -48.2700    5.2600 H       1  LIG1        0.0624
     16 C          -0.8300  -49.7000    6.0100 C.ar    1  LIG1        0.0035
     17 C           0.3700  -48.9100    5.9700 C.ar    1  LIG1       -0.0131
     18 C           0.4000  -47.4900    5.5200 C.3     1  LIG1       -0.0220
     19 H           1.1900  -47.3900    4.7800 H       1  LIG1        0.0315
     20 H          -0.5600  -47.2600    5.0600 H       1  LIG1        0.0315
     21 C           0.6500  -46.4800    6.6000 C.3     1  LIG1       -0.0146
     22 H           0.6300  -45.5000    6.1300 H       1  LIG1        0.0301
     23 H           1.6500  -46.6700    6.9900 H       1  LIG1        0.0301
     24 C          -0.2800  -46.4300    7.7600 C.3     1  LIG1        0.0899
     25 H          -0.0300  -45.5900    8.4000 H       1  LIG1        0.0696
     26 O          -1.5900  -46.2900    7.3300 O.3     1  LIG1       -0.4914
     27 C          -2.6600  -46.2600    8.1900 C.ar    1  LIG1        0.1321
     28 C          -2.6200  -46.9200    9.3900 C.ar    1  LIG1        0.0963
     29 C          -1.4600  -47.6700    9.7700 C.3     1  LIG1        0.4208
     30 F          -1.8000  -49.0000    9.9600 F       1  LIG1       -0.1658
     31 F          -0.9400  -47.1600   10.9500 F       1  LIG1       -0.1658
     32 C          -3.7300  -46.8600   10.2300 C.ar    1  LIG1       -0.0466
     33 H          -3.7000  -47.3800   11.1800 H       1  LIG1        0.0624
     34 C          -4.8700  -46.1400    9.8700 C.ar    1  LIG1       -0.0610
     35 H          -5.7200  -46.1000   10.5400 H       1  LIG1        0.0618
     36 C          -4.8900  -45.4700    8.6600 C.ar    1  LIG1       -0.0583
     37 H          -5.7700  -44.9100    8.3700 H       1  LIG1        0.0619
     38 C          -3.7800  -45.5300    7.8200 C.ar    1  LIG1       -0.0194
     39 H          -3.8000  -45.0000    6.8700 H       1  LIG1        0.0654
     40 H          -0.1884  -47.3538    8.3312 H       1  LIG1        0.0696
     41 F          -0.5094  -47.5785    8.7738 F       1  LIG1       -0.1658
@<TRIPOS>BOND
     1     1     2   ar
     2     2     3   ar
     3     2     4    1
     4     4     5   ar
     5     4    17   ar
     6     5     6    1
     7     5     7   ar
     8     7     8   ar
     9     7    16   ar
    10     8     9    1
    11     8    10   ar
    12    10    11    1
    13    10    12   ar
    14    12    13    1
    15    12    14   ar
    16    14    15    1
    17    14    16   ar
    18    16    17   ar
    19    17    18    1
    20    18    19    1
    21    18    20    1
    22    18    21    1
    23    21    22    1
    24    21    23    1
    25    21    24    1
    26    24    25    1
    27    24    26    1
    28    24    40    1
    29    26    27    1
    30    27    28   ar
    31    27    38   ar
    32    28    29    1
    33    28    32   ar
    34    29    30    1
    35    29    31    1
    36    29    41    1
    37    32    33    1
    38    32    34   ar
    39    34    35    1
    40    34    36   ar
    41    36    37    1
    42    36    38   ar
    43    38    39    1
