@<TRIPOS>MOLECULE
lig_44
 44 47 0 0 0
SMALL
GASTEIGER

@<TRIPOS>ATOM
      1 O           3.8100  -50.0800    6.4300 O.co2   1  LIG1       -0.5431
      2 C           2.9400  -49.1700    6.5100 C.2     1  LIG1        0.0881
      3 OXT         3.2800  -47.9700    6.6700 O.co2   1  LIG1       -0.5431
      4 CA          1.5200  -49.6100    6.4100 C.ar    1  LIG1        0.0661
      5 N           1.0100  -51.1700    6.8300 N.ar    1  LIG1       -0.3530
      6 H           1.5300  -51.9500    7.1800 H       1  LIG1        0.1659
      7 C          -0.6500  -51.0200    6.4700 C.ar    1  LIG1        0.0472
      8 C          -1.7400  -51.8800    6.5500 C.ar    1  LIG1       -0.0378
      9 H          -1.5900  -52.9000    6.8900 H       1  LIG1        0.0638
     10 C          -3.0100  -51.4600    6.1900 C.ar    1  LIG1       -0.0598
     11 H          -3.8500  -52.1300    6.2600 H       1  LIG1        0.0618
     12 C          -3.1800  -50.1500    5.7300 C.ar    1  LIG1       -0.0611
     13 H          -4.1700  -49.8000    5.4500 H       1  LIG1        0.0618
     14 C          -2.1000  -49.2800    5.6300 C.ar    1  LIG1       -0.0523
     15 H          -2.2500  -48.2700    5.2600 H       1  LIG1        0.0624
     16 C          -0.8300  -49.7000    6.0100 C.ar    1  LIG1        0.0035
     17 C           0.3700  -48.9100    5.9700 C.ar    1  LIG1       -0.0131
     18 C           0.4000  -47.4900    5.5200 C.3     1  LIG1       -0.0220
     19 H           1.1900  -47.3900    4.7800 H       1  LIG1        0.0315
     20 H          -0.5600  -47.2600    5.0600 H       1  LIG1        0.0315
     21 C           0.6500  -46.4800    6.6000 C.3     1  LIG1       -0.0146
     22 H           0.5300  -45.4900    6.1500 H       1  LIG1        0.0301
     23 H           1.6900  -46.6000    6.9200 H       1  LIG1        0.0301
     24 C          -0.2000  -46.5200    7.8200 C.3     1  LIG1        0.0899
     25 H           0.0400  -45.6700    8.4600 H       1  LIG1        0.0696
     26 H           0.0000  -47.4400    8.3700 H       1  LIG1        0.0696
     27 O          -1.5400  -46.4700    7.4900 O.3     1  LIG1       -0.4913
     28 C          -2.5500  -46.5300    8.4200 C.ar    1  LIG1        0.1283
     29 C          -3.7500  -45.9100    8.1800 C.ar    1  LIG1        0.0252
     30 C          -4.7500  -46.0000    9.1500 C.ar    1  LIG1        0.0039
     31 C          -4.5400  -46.7000   10.3500 C.ar    1  LIG1        0.0489
     32 CL         -5.8100  -46.7900   11.5500 Cl      1  LIG1       -0.0829
     33 C          -3.3200  -47.3200   10.5600 C.ar    1  LIG1       -0.0393
     34 H          -3.1500  -47.8600   11.4800 H       1  LIG1        0.0633
     35 C          -2.3200  -47.2400    9.5900 C.ar    1  LIG1       -0.0179
     36 H          -1.3800  -47.7300    9.7600 H       1  LIG1        0.0655
     37 C          -5.9900  -45.3600    8.9200 C.ar    1  LIG1       -0.0525
     38 H          -6.7700  -45.4300    9.6600 H       1  LIG1        0.0624
     39 C          -6.2300  -44.6600    7.7400 C.ar    1  LIG1       -0.0611
     40 H          -7.1900  -44.1800    7.5800 H       1  LIG1        0.0618
     41 C          -5.2300  -44.5700    6.7700 C.ar    1  LIG1       -0.0611
     42 H          -5.4200  -44.0200    5.8500 H       1  LIG1        0.0618
     43 C          -4.0000  -45.1800    6.9700 C.ar    1  LIG1       -0.0505
     44 H          -3.2300  -45.1100    6.2200 H       1  LIG1        0.0625
@<TRIPOS>BOND
     1    18    19    1
     2    18    20    1
     3    14    15    1
     4    12    13    1
     5    17    18    1
     6    18    21    1
     7    12    14   ar
     8    14    16   ar
     9    10    12   ar
    10    41    42    1
    11    16    17   ar
    12     4    17   ar
    13     7    16   ar
    14    21    22    1
    15    10    11    1
    16     8    10   ar
    17    43    44    1
    18     2     4    1
    19     4     5   ar
    20     1     2   ar
    21     7     8   ar
    22     5     7   ar
    23     2     3   ar
    24     8     9    1
    25    21    23    1
    26    21    24    1
    27    41    43   ar
    28    39    41   ar
    29     5     6    1
    30    29    43   ar
    31    24    27    1
    32    27    28    1
    33    39    40    1
    34    37    39   ar
    35    24    26    1
    36    24    25    1
    37    28    29   ar
    38    29    30   ar
    39    28    35   ar
    40    30    37   ar
    41    37    38    1
    42    30    31   ar
    43    35    36    1
    44    33    35   ar
    45    31    33   ar
    46    31    32    1
    47    33    34    1
