@<TRIPOS>MOLECULE
lig_67
 43 45 0 0 0
SMALL
GASTEIGER

@<TRIPOS>ATOM
      1 O           3.8100  -50.0800    6.4300 O.co2   1  LIG1       -0.5416
      2 C           2.9400  -49.1700    6.5100 C.2     1  LIG1        0.1072
      3 O           3.2800  -47.9700    6.6700 O.co2   1  LIG1       -0.5416
      4 C           1.5200  -49.6100    6.4100 C.ar    1  LIG1        0.1545
      5 O           1.0100  -51.1700    6.8300 O.2     1  LIG1       -0.4533
      6 C          -0.6500  -51.0200    6.4700 C.ar    1  LIG1        0.1360
      7 C          -1.7400  -51.8800    6.5500 C.ar    1  LIG1       -0.0187
      8 H          -1.5900  -52.9000    6.8900 H       1  LIG1        0.0654
      9 C          -3.0100  -51.4600    6.1900 C.ar    1  LIG1       -0.0582
     10 H          -3.8500  -52.1300    6.2600 H       1  LIG1        0.0619
     11 C          -3.1800  -50.1500    5.7300 C.ar    1  LIG1       -0.0610
     12 H          -4.1700  -49.8000    5.4500 H       1  LIG1        0.0618
     13 C          -2.1000  -49.2800    5.6300 C.ar    1  LIG1       -0.0507
     14 H          -2.2500  -48.2700    5.2600 H       1  LIG1        0.0625
     15 C          -0.8300  -49.7000    6.0100 C.ar    1  LIG1        0.0240
     16 C           0.3700  -48.9100    5.9700 C.ar    1  LIG1        0.0074
     17 C           0.4000  -47.4900    5.5200 C.3     1  LIG1       -0.0204
     18 H           1.1900  -47.3900    4.7800 H       1  LIG1        0.0316
     19 H          -0.5600  -47.2600    5.0600 H       1  LIG1        0.0316
     20 C           0.6500  -46.4800    6.6000 C.3     1  LIG1       -0.0145
     21 H           0.6300  -45.5000    6.1300 H       1  LIG1        0.0301
     22 H           1.6500  -46.6700    6.9900 H       1  LIG1        0.0301
     23 C          -0.2800  -46.4300    7.7600 C.3     1  LIG1        0.0899
     24 H           0.0400  -45.6500    8.4500 H       1  LIG1        0.0696
     25 H          -0.2700  -47.4000    8.2700 H       1  LIG1        0.0696
     26 O          -1.5700  -46.1600    7.3400 O.3     1  LIG1       -0.4919
     27 C          -2.6400  -46.0900    8.1900 C.ar    1  LIG1        0.1211
     28 C          -2.6100  -46.7400    9.4100 C.ar    1  LIG1       -0.0156
     29 H          -1.7400  -47.3100    9.7000 H       1  LIG1        0.0657
     30 C          -3.7100  -46.6500   10.2500 C.ar    1  LIG1       -0.0284
     31 C          -3.6900  -47.3100   11.5100 C.3     1  LIG1       -0.0382
     32 H          -2.7500  -47.8300   11.6300 H       1  LIG1        0.0278
     33 H          -4.5100  -48.0300   11.5600 H       1  LIG1        0.0278
     34 H          -3.8100  -46.5800   12.3100 H       1  LIG1        0.0278
     35 C          -4.8400  -45.9100    9.8800 C.ar    1  LIG1        0.0470
     36 CL         -6.2200  -45.8100   10.9600 Cl      1  LIG1       -0.0830
     37 C          -4.8600  -45.2600    8.6600 C.ar    1  LIG1       -0.0284
     38 C          -6.0100  -44.5100    8.2600 C.3     1  LIG1       -0.0382
     39 H          -6.7600  -44.5600    9.0400 H       1  LIG1        0.0278
     40 H          -6.4100  -44.9200    7.3400 H       1  LIG1        0.0278
     41 H          -5.7200  -43.4700    8.1000 H       1  LIG1        0.0278
     42 C          -3.7500  -45.3500    7.8200 C.ar    1  LIG1       -0.0156
     43 H          -3.7600  -44.8400    6.8600 H       1  LIG1        0.0657
@<TRIPOS>BOND
     1    17    18    1
     2    17    19    1
     3    13    14    1
     4    11    12    1
     5    16    17    1
     6    17    20    1
     7    11    13   ar
     8    13    15   ar
     9     9    11   ar
    10    15    16   ar
    11     4    16   ar
    12     6    15   ar
    13    20    21    1
    14     9    10    1
    15     7     9   ar
    16     2     4    1
    17     4     5   ar
    18     1     2   ar
    19     6     7   ar
    20     5     6   ar
    21     2     3   ar
    22     7     8    1
    23    20    22    1
    24    20    23    1
    25    42    43    1
    26    23    26    1
    27    26    27    1
    28    38    40    1
    29    23    25    1
    30    23    24    1
    31    27    42   ar
    32    37    42   ar
    33    38    41    1
    34    27    28   ar
    35    37    38    1
    36    38    39    1
    37    35    37   ar
    38    28    29    1
    39    28    30   ar
    40    30    35   ar
    41    35    36    1
    42    30    31    1
    43    31    33    1
    44    31    32    1
    45    31    34    1
