@<TRIPOS>MOLECULE
lig_46
 45 48 0 0 0
SMALL
GASTEIGER

@<TRIPOS>ATOM
      1 O           3.8100  -50.0800    6.4300 O.co2   1  LIG1       -0.5431
      2 C           2.9400  -49.1700    6.5100 C.2     1  LIG1        0.0881
      3 OXT         3.2800  -47.9700    6.6700 O.co2   1  LIG1       -0.5431
      4 CA          1.5200  -49.6100    6.4100 C.ar    1  LIG1        0.0661
      5 N           1.0100  -51.1700    6.8300 N.ar    1  LIG1       -0.3530
      6 H           1.5300  -51.9500    7.1800 H       1  LIG1        0.1659
      7 C          -0.6500  -51.0200    6.4700 C.ar    1  LIG1        0.0472
      8 C          -1.7400  -51.8800    6.5500 C.ar    1  LIG1       -0.0378
      9 H          -1.5900  -52.9000    6.8900 H       1  LIG1        0.0638
     10 C          -3.0100  -51.4600    6.1900 C.ar    1  LIG1       -0.0598
     11 H          -3.8500  -52.1300    6.2600 H       1  LIG1        0.0618
     12 C          -3.1800  -50.1500    5.7300 C.ar    1  LIG1       -0.0611
     13 H          -4.1700  -49.8000    5.4500 H       1  LIG1        0.0618
     14 C          -2.1000  -49.2800    5.6300 C.ar    1  LIG1       -0.0523
     15 H          -2.2500  -48.2700    5.2600 H       1  LIG1        0.0624
     16 C          -0.8300  -49.7000    6.0100 C.ar    1  LIG1        0.0035
     17 C           0.3700  -48.9100    5.9700 C.ar    1  LIG1       -0.0131
     18 C           0.4000  -47.4900    5.5200 C.3     1  LIG1       -0.0220
     19 H           1.2600  -47.3600    4.8600 H       1  LIG1        0.0315
     20 H          -0.5200  -47.2900    4.9700 H       1  LIG1        0.0315
     21 C           0.5100  -46.4700    6.6100 C.3     1  LIG1       -0.0146
     22 H           0.4000  -45.4900    6.1500 H       1  LIG1        0.0301
     23 H           1.5100  -46.5600    7.0400 H       1  LIG1        0.0301
     24 C          -0.4600  -46.5400    7.7500 C.3     1  LIG1        0.0899
     25 H          -0.1700  -45.8100    8.5100 H       1  LIG1        0.0696
     26 H          -0.4300  -47.5400    8.1800 H       1  LIG1        0.0696
     27 O          -1.7400  -46.2700    7.3100 O.3     1  LIG1       -0.4919
     28 C          -2.8300  -46.2900    8.1400 C.ar    1  LIG1        0.1208
     29 C          -2.7700  -46.9300    9.3600 C.ar    1  LIG1       -0.0165
     30 H          -1.8600  -47.4200    9.6800 H       1  LIG1        0.0657
     31 C          -3.9100  -46.9300   10.1700 C.ar    1  LIG1       -0.0407
     32 C          -5.0900  -46.3100    9.7700 C.ar    1  LIG1       -0.0439
     33 C          -5.1300  -45.6700    8.5400 C.ar    1  LIG1       -0.0549
     34 H          -6.0400  -45.1800    8.2100 H       1  LIG1        0.0621
     35 C          -3.9900  -45.6600    7.7200 C.ar    1  LIG1       -0.0197
     36 H          -4.0200  -45.1500    6.7700 H       1  LIG1        0.0654
     37 C          -4.1000  -47.6300   11.4300 C.3     1  LIG1       -0.0270
     38 H          -3.4400  -47.2400   12.2000 H       1  LIG1        0.0313
     39 H          -3.9100  -48.7000   11.3100 H       1  LIG1        0.0313
     40 C          -6.0700  -46.3400   10.8000 C.3     1  LIG1       -0.0271
     41 H          -7.0400  -46.6300   10.4000 H       1  LIG1        0.0313
     42 H          -6.1500  -45.3600   11.2800 H       1  LIG1        0.0313
     43 C          -5.5600  -47.3800   11.7900 C.3     1  LIG1       -0.0450
     44 H          -5.6400  -47.0100   12.8100 H       1  LIG1        0.0272
     45 H          -6.1400  -48.3000   11.6900 H       1  LIG1        0.0272
@<TRIPOS>BOND
     1    18    19    1
     2    18    20    1
     3    14    15    1
     4    12    13    1
     5    17    18    1
     6    18    21    1
     7    12    14   ar
     8    14    16   ar
     9    10    12   ar
    10    16    17   ar
    11     4    17   ar
    12     7    16   ar
    13    21    22    1
    14    10    11    1
    15     8    10   ar
    16     2     4    1
    17     4     5   ar
    18     1     2   ar
    19     7     8   ar
    20     5     7   ar
    21     2     3   ar
    22     8     9    1
    23    21    23    1
    24    21    24    1
    25    35    36    1
    26     5     6    1
    27    24    27    1
    28    27    28    1
    29    28    35   ar
    30    33    35   ar
    31    24    26    1
    32    24    25    1
    33    28    29   ar
    34    33    34    1
    35    32    33   ar
    36    29    30    1
    37    29    31   ar
    38    31    32   ar
    39    32    40    1
    40    31    37    1
    41    40    41    1
    42    40    42    1
    43    40    43    1
    44    37    39    1
    45    37    43    1
    46    37    38    1
    47    43    45    1
    48    43    44    1
