@<TRIPOS>MOLECULE
lig_42
 44 47 0 0 0
SMALL
GASTEIGER

@<TRIPOS>ATOM
      1 O           3.8100  -50.0800    6.4300 O.co2   1  LIG1       -0.5431
      2 C           2.9400  -49.1700    6.5100 C.2     1  LIG1        0.0881
      3 OXT         3.2800  -47.9700    6.6700 O.co2   1  LIG1       -0.5431
      4 CA          1.5200  -49.6100    6.4100 C.ar    1  LIG1        0.0661
      5 N           1.0100  -51.1700    6.8300 N.ar    1  LIG1       -0.3530
      6 H           1.5300  -51.9500    7.1800 H       1  LIG1        0.1659
      7 C          -0.6500  -51.0200    6.4700 C.ar    1  LIG1        0.0472
      8 C          -1.7400  -51.8800    6.5500 C.ar    1  LIG1       -0.0378
      9 H          -1.5900  -52.9000    6.8900 H       1  LIG1        0.0638
     10 C          -3.0100  -51.4600    6.1900 C.ar    1  LIG1       -0.0598
     11 H          -3.8500  -52.1300    6.2600 H       1  LIG1        0.0618
     12 C          -3.1800  -50.1500    5.7300 C.ar    1  LIG1       -0.0611
     13 H          -4.1700  -49.8000    5.4500 H       1  LIG1        0.0618
     14 C          -2.1000  -49.2800    5.6300 C.ar    1  LIG1       -0.0523
     15 H          -2.2500  -48.2700    5.2600 H       1  LIG1        0.0624
     16 C          -0.8300  -49.7000    6.0100 C.ar    1  LIG1        0.0035
     17 C           0.3700  -48.9100    5.9700 C.ar    1  LIG1       -0.0131
     18 C           0.4000  -47.4900    5.5200 C.3     1  LIG1       -0.0220
     19 H           1.2300  -47.3700    4.8200 H       1  LIG1        0.0315
     20 H          -0.5400  -47.2800    5.0200 H       1  LIG1        0.0315
     21 C           0.5800  -46.4700    6.6100 C.3     1  LIG1       -0.0146
     22 H           0.3600  -45.5000    6.1800 H       1  LIG1        0.0301
     23 H           1.6300  -46.5100    6.9100 H       1  LIG1        0.0301
     24 C          -0.2400  -46.6100    7.8500 C.3     1  LIG1        0.0899
     25 H           0.0900  -45.8700    8.5800 H       1  LIG1        0.0696
     26 H          -0.1000  -47.6100    8.2600 H       1  LIG1        0.0696
     27 O          -1.5800  -46.4100    7.5800 O.3     1  LIG1       -0.4913
     28 C          -2.5600  -46.5100    8.5300 C.ar    1  LIG1        0.1282
     29 C          -2.3100  -47.1600    9.7200 C.ar    1  LIG1       -0.0193
     30 H          -1.3500  -47.5900    9.9200 H       1  LIG1        0.0654
     31 C          -3.3400  -47.2300   10.6600 C.ar    1  LIG1       -0.0577
     32 H          -3.1600  -47.7300   11.6000 H       1  LIG1        0.0619
     33 C          -4.5900  -46.6800   10.4100 C.ar    1  LIG1       -0.0538
     34 H          -5.3800  -46.7500   11.1500 H       1  LIG1        0.0624
     35 C          -4.8200  -46.0300    9.2100 C.ar    1  LIG1       -0.0144
     36 C          -3.8000  -45.9500    8.2700 C.ar    1  LIG1        0.0238
     37 C          -4.0400  -45.2800    7.0400 C.ar    1  LIG1       -0.0505
     38 H          -3.2400  -45.2000    6.3100 H       1  LIG1        0.0625
     39 C          -5.2800  -44.7100    6.7600 C.ar    1  LIG1       -0.0611
     40 H          -5.4500  -44.2000    5.8200 H       1  LIG1        0.0618
     41 C          -6.3100  -44.8000    7.7000 C.ar    1  LIG1       -0.0612
     42 H          -7.2700  -44.3600    7.4800 H       1  LIG1        0.0618
     43 C          -6.1000  -45.4500    8.9100 C.ar    1  LIG1       -0.0539
     44 H          -6.9000  -45.5200    9.6300 H       1  LIG1        0.0624
@<TRIPOS>BOND
     1    18    19    1
     2    18    20    1
     3    14    15    1
     4    12    13    1
     5    17    18    1
     6    18    21    1
     7    12    14   ar
     8    14    16   ar
     9    10    12   ar
    10    39    40    1
    11    16    17   ar
    12     4    17   ar
    13     7    16   ar
    14    21    22    1
    15    10    11    1
    16     8    10   ar
    17    37    38    1
    18     2     4    1
    19     4     5   ar
    20     1     2   ar
    21     7     8   ar
    22     5     7   ar
    23     2     3   ar
    24     8     9    1
    25    21    23    1
    26    21    24    1
    27    37    39   ar
    28    39    41   ar
    29     5     6    1
    30    36    37   ar
    31    41    42    1
    32    24    27    1
    33    27    28    1
    34    41    43   ar
    35    24    26    1
    36    24    25    1
    37    28    36   ar
    38    35    36   ar
    39    28    29   ar
    40    35    43   ar
    41    43    44    1
    42    33    35   ar
    43    29    30    1
    44    29    31   ar
    45    31    33   ar
    46    33    34    1
    47    31    32    1
