lig_23
  -OEChem-01312017293D

 43 46  0     0  0  0  0  0  0999 V2000
    3.8100  -50.0800    6.4300 O   0  5  0  0  0  0  0  0  0  0  0  0
    2.9400  -49.1700    6.5100 C   0  0  0  0  0  0  0  0  0  0  0  0
    3.2800  -47.9700    6.6700 O   0  0  0  0  0  0  0  0  0  0  0  0
    1.5200  -49.6100    6.4100 C   0  0  0  0  0  0  0  0  0  0  0  0
    1.0100  -51.1700    6.8300 S   0  0  0  0  0  0  0  0  0  0  0  0
   -0.6500  -51.0200    6.4700 C   0  0  0  0  0  0  0  0  0  0  0  0
   -1.7400  -51.8800    6.5500 C   0  0  0  0  0  0  0  0  0  0  0  0
   -1.5900  -52.9000    6.8900 H   0  0  0  0  0  0  0  0  0  0  0  0
   -3.0100  -51.4600    6.1900 C   0  0  0  0  0  0  0  0  0  0  0  0
   -3.8500  -52.1300    6.2600 H   0  0  0  0  0  0  0  0  0  0  0  0
   -3.1800  -50.1500    5.7300 C   0  0  0  0  0  0  0  0  0  0  0  0
   -4.1700  -49.8000    5.4500 H   0  0  0  0  0  0  0  0  0  0  0  0
   -2.1000  -49.2800    5.6300 C   0  0  0  0  0  0  0  0  0  0  0  0
   -2.2500  -48.2700    5.2600 H   0  0  0  0  0  0  0  0  0  0  0  0
   -0.8300  -49.7000    6.0100 C   0  0  0  0  0  0  0  0  0  0  0  0
    0.3700  -48.9100    5.9700 C   0  0  0  0  0  0  0  0  0  0  0  0
    0.4000  -47.4900    5.5200 C   0  0  0  0  0  0  0  0  0  0  0  0
    1.1900  -47.3900    4.7800 H   0  0  0  0  0  0  0  0  0  0  0  0
   -0.5600  -47.2600    5.0600 H   0  0  0  0  0  0  0  0  0  0  0  0
    0.6500  -46.4800    6.6000 C   0  0  0  0  0  0  0  0  0  0  0  0
    0.5300  -45.4900    6.1500 H   0  0  0  0  0  0  0  0  0  0  0  0
    1.6900  -46.6000    6.9200 H   0  0  0  0  0  0  0  0  0  0  0  0
   -0.2000  -46.5200    7.8200 C   0  0  0  0  0  0  0  0  0  0  0  0
    0.1100  -45.7300    8.5100 H   0  0  0  0  0  0  0  0  0  0  0  0
   -0.0800  -47.4900    8.3100 H   0  0  0  0  0  0  0  0  0  0  0  0
   -1.5300  -46.3400    7.5000 O   0  0  0  0  0  0  0  0  0  0  0  0
   -2.5500  -46.4800    8.4100 C   0  0  0  0  0  0  0  0  0  0  0  0
   -2.3800  -47.2600    9.5300 C   0  0  0  0  0  0  0  0  0  0  0  0
   -1.4400  -47.7700    9.7100 H   0  0  0  0  0  0  0  0  0  0  0  0
   -3.4400  -47.3800   10.4300 C   0  0  0  0  0  0  0  0  0  0  0  0
   -3.3200  -47.9800   11.3100 H   0  0  0  0  0  0  0  0  0  0  0  0
   -4.6500  -46.7300   10.2000 C   0  0  0  0  0  0  0  0  0  0  0  0
   -5.4700  -46.8300   10.9100 H   0  0  0  0  0  0  0  0  0  0  0  0
   -4.8100  -45.9500    9.0700 C   0  0  0  0  0  0  0  0  0  0  0  0
   -3.7500  -45.8300    8.1700 C   0  0  0  0  0  0  0  0  0  0  0  0
   -3.9100  -45.0200    7.0200 C   0  0  0  0  0  0  0  0  0  0  0  0
   -3.0900  -44.9200    6.3200 H   0  0  0  0  0  0  0  0  0  0  0  0
   -5.1100  -44.3600    6.7600 C   0  0  0  0  0  0  0  0  0  0  0  0
   -5.2200  -43.7500    5.8800 H   0  0  0  0  0  0  0  0  0  0  0  0
   -6.1800  -44.4900    7.6500 C   0  0  0  0  0  0  0  0  0  0  0  0
   -7.1100  -43.9800    7.4600 H   0  0  0  0  0  0  0  0  0  0  0  0
   -6.0400  -45.2700    8.8000 C   0  0  0  0  0  0  0  0  0  0  0  0
   -6.8700  -45.3700    9.4900 H   0  0  0  0  0  0  0  0  0  0  0  0
 17 18  1  0  0  0  0
 17 19  1  0  0  0  0
 13 14  1  0  0  0  0
 11 12  1  0  0  0  0
 16 17  1  0  0  0  0
 17 20  1  0  0  0  0
 11 13  2  0  0  0  0
 13 15  1  0  0  0  0
  9 11  1  0  0  0  0
 38 39  1  0  0  0  0
 15 16  1  0  0  0  0
  4 16  2  0  0  0  0
  6 15  2  0  0  0  0
 20 21  1  0  0  0  0
  9 10  1  0  0  0  0
  7  9  2  0  0  0  0
 36 37  1  0  0  0  0
  2  4  1  0  0  0  0
  4  5  1  0  0  0  0
  1  2  1  0  0  0  0
  6  7  1  0  0  0  0
  5  6  1  0  0  0  0
  2  3  2  0  0  0  0
  7  8  1  0  0  0  0
 20 22  1  0  0  0  0
 20 23  1  0  0  0  0
 36 38  2  0  0  0  0
 38 40  1  0  0  0  0
 35 36  1  0  0  0  0
 40 41  1  0  0  0  0
 23 26  1  0  0  0  0
 26 27  1  0  0  0  0
 40 42  2  0  0  0  0
 23 25  1  0  0  0  0
 23 24  1  0  0  0  0
 27 35  2  0  0  0  0
 34 35  1  0  0  0  0
 27 28  1  0  0  0  0
 34 42  1  0  0  0  0
 42 43  1  0  0  0  0
 32 34  2  0  0  0  0
 28 29  1  0  0  0  0
 28 30  2  0  0  0  0
 30 32  1  0  0  0  0
 32 33  1  0  0  0  0
 30 31  1  0  0  0  0
M  CHG  1   1  -1
M  END
$$$$
