@<TRIPOS>MOLECULE
lig_57
 47 50 0 0 0
SMALL
GASTEIGER

@<TRIPOS>ATOM
      1 O           3.8100  -50.0800    6.4300 O.co2   1  LIG1       -0.5431
      2 C           2.9400  -49.1700    6.5100 C.2     1  LIG1        0.0883
      3 O           3.2800  -47.9700    6.6700 O.co2   1  LIG1       -0.5431
      4 C           1.5200  -49.6100    6.4100 C.ar    1  LIG1        0.0684
      5 N           1.0100  -51.1700    6.8300 N.ar    1  LIG1       -0.3418
      6 C           1.7900  -52.3500    7.3600 C.3     1  LIG1        0.0125
      7 C          -0.6500  -51.0200    6.4700 C.ar    1  LIG1        0.0496
      8 C          -1.7400  -51.8800    6.5500 C.ar    1  LIG1       -0.0376
      9 H          -1.5900  -52.9000    6.8900 H       1  LIG1        0.0638
     10 C          -3.0100  -51.4600    6.1900 C.ar    1  LIG1       -0.0598
     11 H          -3.8500  -52.1300    6.2600 H       1  LIG1        0.0618
     12 C          -3.1800  -50.1500    5.7300 C.ar    1  LIG1       -0.0611
     13 H          -4.1700  -49.8000    5.4500 H       1  LIG1        0.0618
     14 C          -2.1000  -49.2800    5.6300 C.ar    1  LIG1       -0.0523
     15 H          -2.2500  -48.2700    5.2600 H       1  LIG1        0.0624
     16 C          -0.8300  -49.7000    6.0100 C.ar    1  LIG1        0.0037
     17 C           0.3700  -48.9100    5.9700 C.ar    1  LIG1       -0.0129
     18 C           0.4000  -47.4900    5.5200 C.3     1  LIG1       -0.0220
     19 H           1.1900  -47.3900    4.7800 H       1  LIG1        0.0315
     20 H          -0.5600  -47.2600    5.0600 H       1  LIG1        0.0315
     21 C           0.6500  -46.4800    6.6000 C.3     1  LIG1       -0.0146
     22 H           0.5000  -45.4900    6.1500 H       1  LIG1        0.0301
     23 H           1.6900  -46.5900    6.9000 H       1  LIG1        0.0301
     24 C          -0.1800  -46.5400    7.8400 C.3     1  LIG1        0.0899
     25 H           0.0600  -45.6800    8.4700 H       1  LIG1        0.0696
     26 H           0.0400  -47.4600    8.3700 H       1  LIG1        0.0696
     27 O          -1.5300  -46.5100    7.5200 O.3     1  LIG1       -0.4913
     28 C          -2.5200  -46.5300    8.4700 C.ar    1  LIG1        0.1282
     29 C          -3.7300  -45.9200    8.2200 C.ar    1  LIG1        0.0238
     30 C          -4.7100  -45.9600    9.2100 C.ar    1  LIG1       -0.0144
     31 C          -4.4900  -46.6000   10.4300 C.ar    1  LIG1       -0.0538
     32 H          -5.2500  -46.6300   11.1900 H       1  LIG1        0.0624
     33 C          -3.2600  -47.2100   10.6600 C.ar    1  LIG1       -0.0577
     34 H          -3.0700  -47.7100   11.6000 H       1  LIG1        0.0619
     35 C          -2.2800  -47.1700    9.6700 C.ar    1  LIG1       -0.0193
     36 H          -1.3200  -47.6500    9.8400 H       1  LIG1        0.0654
     37 C          -5.9600  -45.3400    8.9600 C.ar    1  LIG1       -0.0539
     38 H          -6.7300  -45.3700    9.7200 H       1  LIG1        0.0624
     39 C          -6.2200  -44.6900    7.7600 C.ar    1  LIG1       -0.0612
     40 H          -7.1800  -44.2300    7.5900 H       1  LIG1        0.0618
     41 C          -5.2400  -44.6500    6.7600 C.ar    1  LIG1       -0.0611
     42 H          -5.4400  -44.1500    5.8300 H       1  LIG1        0.0618
     43 C          -4.0000  -45.2500    6.9800 C.ar    1  LIG1       -0.0505
     44 H          -3.2400  -45.2200    6.2200 H       1  LIG1        0.0625
     45 H           1.1200  -53.2000    7.5100 H       1  LIG1        0.0456
     46 H           2.5700  -52.6300    6.6500 H       1  LIG1        0.0456
     47 H           2.2600  -52.0800    8.3100 H       1  LIG1        0.0456
@<TRIPOS>BOND
     1    18    19    1
     2    18    20    1
     3    14    15    1
     4    12    13    1
     5    17    18    1
     6    18    21    1
     7    12    14   ar
     8    14    16   ar
     9    10    12   ar
    10    41    42    1
    11    16    17   ar
    12     4    17   ar
    13     7    16   ar
    14    21    22    1
    15    10    11    1
    16     8    10   ar
    17    43    44    1
    18     2     4    1
    19     4     5   ar
    20     1     2   ar
    21     7     8   ar
    22     5     7   ar
    23     2     3   ar
    24     8     9    1
    25    21    23    1
    26    21    24    1
    27     6    46    1
    28    41    43   ar
    29    39    41   ar
    30     5     6    1
    31    29    43   ar
    32     6    45    1
    33     6    47    1
    34    24    27    1
    35    27    28    1
    36    39    40    1
    37    37    39   ar
    38    24    26    1
    39    24    25    1
    40    28    29   ar
    41    29    30   ar
    42    28    35   ar
    43    30    37   ar
    44    37    38    1
    45    30    31   ar
    46    35    36    1
    47    33    35   ar
    48    31    33   ar
    49    31    32    1
    50    33    34    1
