@<TRIPOS>MOLECULE
lig_61
 43 45 0 0 0
SMALL
GASTEIGER

@<TRIPOS>ATOM
      1 O           3.8100  -50.0800    6.4300 O.co2   1  LIG1       -0.5441
      2 C           2.9400  -49.1700    6.5100 C.2     1  LIG1        0.0785
      3 O           3.2800  -47.9700    6.6700 O.co2   1  LIG1       -0.5441
      4 C           1.5200  -49.6100    6.4100 C.ar    1  LIG1        0.0389
      5 S           1.0100  -51.1700    6.8300 S.2     1  LIG1       -0.0867
      6 C          -0.6500  -51.0200    6.4700 C.ar    1  LIG1        0.0216
      7 C          -1.7400  -51.8800    6.5500 C.ar    1  LIG1       -0.0473
      8 H          -1.5900  -52.9000    6.8900 H       1  LIG1        0.0629
      9 C          -3.0100  -51.4600    6.1900 C.ar    1  LIG1       -0.0593
     10 H          -3.8500  -52.1300    6.2600 H       1  LIG1        0.0618
     11 C          -3.1800  -50.1500    5.7300 C.ar    1  LIG1       -0.0427
     12 H          -4.1700  -49.8000    5.4500 H       1  LIG1        0.0632
     13 C          -2.1000  -49.2800    5.6300 C.ar    1  LIG1        0.0495
     14 CL         -2.3400  -47.6500    5.0400 Cl      1  LIG1       -0.0829
     15 C          -0.8300  -49.7000    6.0100 C.ar    1  LIG1        0.0113
     16 C           0.3700  -48.9100    5.9700 C.ar    1  LIG1       -0.0222
     17 C           0.4000  -47.4900    5.5200 C.3     1  LIG1       -0.0229
     18 H           1.1900  -47.3900    4.7800 H       1  LIG1        0.0315
     19 H          -0.5600  -47.2600    5.0600 H       1  LIG1        0.0315
     20 C           0.6500  -46.4800    6.6000 C.3     1  LIG1       -0.0146
     21 H           0.6300  -45.5000    6.1300 H       1  LIG1        0.0301
     22 H           1.6500  -46.6700    6.9900 H       1  LIG1        0.0301
     23 C          -0.2800  -46.4300    7.7600 C.3     1  LIG1        0.0899
     24 H          -0.0300  -45.5900    8.4000 H       1  LIG1        0.0696
     25 H          -0.1900  -47.3600    8.3300 H       1  LIG1        0.0696
     26 O          -1.5900  -46.2900    7.3300 O.3     1  LIG1       -0.4919
     27 C          -2.6600  -46.2600    8.1900 C.ar    1  LIG1        0.1211
     28 C          -2.6200  -46.9200    9.3900 C.ar    1  LIG1       -0.0156
     29 H          -1.7400  -47.4900    9.6800 H       1  LIG1        0.0657
     30 C          -3.7300  -46.8600   10.2300 C.ar    1  LIG1       -0.0284
     31 C          -3.7000  -47.5500   11.4800 C.3     1  LIG1       -0.0382
     32 H          -2.7400  -48.0500   11.6000 H       1  LIG1        0.0278
     33 H          -4.5000  -48.2800   11.5200 H       1  LIG1        0.0278
     34 H          -3.8300  -46.8300   12.2900 H       1  LIG1        0.0278
     35 C          -4.8700  -46.1400    9.8700 C.ar    1  LIG1        0.0470
     36 CL         -6.2500  -46.0800   10.9500 Cl      1  LIG1       -0.0830
     37 C          -4.8900  -45.4700    8.6600 C.ar    1  LIG1       -0.0284
     38 C          -6.0500  -44.7300    8.2700 C.3     1  LIG1       -0.0382
     39 H          -6.8100  -44.8000    9.0500 H       1  LIG1        0.0278
     40 H          -6.4500  -45.1400    7.3400 H       1  LIG1        0.0278
     41 H          -5.7800  -43.6900    8.1300 H       1  LIG1        0.0278
     42 C          -3.7800  -45.5300    7.8200 C.ar    1  LIG1       -0.0156
     43 H          -3.8000  -45.0000    6.8700 H       1  LIG1        0.0657
@<TRIPOS>BOND
     1    17    18    1
     2    13    14    1
     3    17    19    1
     4    11    12    1
     5    16    17    1
     6    17    20    1
     7    11    13   ar
     8    13    15   ar
     9     9    11   ar
    10    15    16   ar
    11     4    16   ar
    12     6    15   ar
    13    20    21    1
    14     9    10    1
    15     7     9   ar
    16     2     4    1
    17     4     5   ar
    18     1     2   ar
    19     6     7   ar
    20     5     6   ar
    21     2     3   ar
    22     7     8    1
    23    20    22    1
    24    20    23    1
    25    42    43    1
    26    23    26    1
    27    26    27    1
    28    38    40    1
    29    23    25    1
    30    23    24    1
    31    27    42   ar
    32    37    42   ar
    33    38    41    1
    34    27    28   ar
    35    37    38    1
    36    38    39    1
    37    35    37   ar
    38    28    29    1
    39    28    30   ar
    40    30    35   ar
    41    35    36    1
    42    30    31    1
    43    31    33    1
    44    31    32    1
    45    31    34    1
