lig_63
  -OEChem-01312017313D

 43 45  0     0  0  0  0  0  0999 V2000
    3.8100  -50.0800    6.4300 O   0  5  0  0  0  0  0  0  0  0  0  0
    2.9400  -49.1700    6.5100 C   0  0  0  0  0  0  0  0  0  0  0  0
    3.2800  -47.9700    6.6700 O   0  0  0  0  0  0  0  0  0  0  0  0
    1.5200  -49.6100    6.4100 C   0  0  0  0  0  0  0  0  0  0  0  0
    1.0100  -51.1700    6.8300 S   0  0  0  0  0  0  0  0  0  0  0  0
   -0.6500  -51.0200    6.4700 C   0  0  0  0  0  0  0  0  0  0  0  0
   -1.7400  -51.8800    6.5500 C   0  0  0  0  0  0  0  0  0  0  0  0
   -1.5900  -52.9000    6.8900 H   0  0  0  0  0  0  0  0  0  0  0  0
   -3.0100  -51.4600    6.1900 C   0  0  0  0  0  0  0  0  0  0  0  0
   -4.3800  -52.5500    6.3100 Cl  0  0  0  0  0  0  0  0  0  0  0  0
   -3.1800  -50.1500    5.7300 C   0  0  0  0  0  0  0  0  0  0  0  0
   -4.1700  -49.8000    5.4500 H   0  0  0  0  0  0  0  0  0  0  0  0
   -2.1000  -49.2800    5.6300 C   0  0  0  0  0  0  0  0  0  0  0  0
   -2.2500  -48.2700    5.2600 H   0  0  0  0  0  0  0  0  0  0  0  0
   -0.8300  -49.7000    6.0100 C   0  0  0  0  0  0  0  0  0  0  0  0
    0.3700  -48.9100    5.9700 C   0  0  0  0  0  0  0  0  0  0  0  0
    0.4000  -47.4900    5.5200 C   0  0  0  0  0  0  0  0  0  0  0  0
    1.2600  -47.3600    4.8600 H   0  0  0  0  0  0  0  0  0  0  0  0
   -0.5200  -47.2900    4.9700 H   0  0  0  0  0  0  0  0  0  0  0  0
    0.5100  -46.4700    6.6100 C   0  0  0  0  0  0  0  0  0  0  0  0
    0.4000  -45.4900    6.1500 H   0  0  0  0  0  0  0  0  0  0  0  0
    1.5100  -46.5600    7.0400 H   0  0  0  0  0  0  0  0  0  0  0  0
   -0.4600  -46.5400    7.7500 C   0  0  0  0  0  0  0  0  0  0  0  0
   -0.1700  -45.8100    8.5100 H   0  0  0  0  0  0  0  0  0  0  0  0
   -0.4300  -47.5400    8.1800 H   0  0  0  0  0  0  0  0  0  0  0  0
   -1.7400  -46.2700    7.3100 O   0  0  0  0  0  0  0  0  0  0  0  0
   -2.8100  -46.1800    8.1600 C   0  0  0  0  0  0  0  0  0  0  0  0
   -2.8500  -46.9000    9.3300 C   0  0  0  0  0  0  0  0  0  0  0  0
   -2.0300  -47.5500    9.6000 H   0  0  0  0  0  0  0  0  0  0  0  0
   -3.9600  -46.7800   10.1600 C   0  0  0  0  0  0  0  0  0  0  0  0
   -4.0000  -47.5200   11.3800 C   0  0  0  0  0  0  0  0  0  0  0  0
   -3.0900  -48.1100   11.4800 H   0  0  0  0  0  0  0  0  0  0  0  0
   -4.8700  -48.1800   11.3700 H   0  0  0  0  0  0  0  0  0  0  0  0
   -4.0800  -46.8300   12.2300 H   0  0  0  0  0  0  0  0  0  0  0  0
   -5.0200  -45.9400    9.8300 C   0  0  0  0  0  0  0  0  0  0  0  0
   -6.4100  -45.8100   10.8900 Cl  0  0  0  0  0  0  0  0  0  0  0  0
   -4.9700  -45.2200    8.6500 C   0  0  0  0  0  0  0  0  0  0  0  0
   -6.0600  -44.3700    8.2900 C   0  0  0  0  0  0  0  0  0  0  0  0
   -6.8300  -44.4100    9.0500 H   0  0  0  0  0  0  0  0  0  0  0  0
   -6.4800  -44.6900    7.3300 H   0  0  0  0  0  0  0  0  0  0  0  0
   -5.7000  -43.3400    8.1900 H   0  0  0  0  0  0  0  0  0  0  0  0
   -3.8600  -45.3400    7.8100 C   0  0  0  0  0  0  0  0  0  0  0  0
   -3.8200  -44.7700    6.9000 H   0  0  0  0  0  0  0  0  0  0  0  0
 17 18  1  0  0  0  0
 17 19  1  0  0  0  0
 13 14  1  0  0  0  0
 11 12  1  0  0  0  0
 16 17  1  0  0  0  0
 17 20  1  0  0  0  0
 11 13  2  0  0  0  0
 13 15  1  0  0  0  0
  9 11  1  0  0  0  0
 15 16  1  0  0  0  0
  4 16  2  0  0  0  0
  6 15  2  0  0  0  0
 20 21  1  0  0  0  0
  9 10  1  0  0  0  0
  7  9  2  0  0  0  0
  2  4  1  0  0  0  0
  4  5  1  0  0  0  0
  1  2  1  0  0  0  0
  6  7  1  0  0  0  0
  5  6  1  0  0  0  0
  2  3  2  0  0  0  0
  7  8  1  0  0  0  0
 20 22  1  0  0  0  0
 20 23  1  0  0  0  0
 42 43  1  0  0  0  0
 23 26  1  0  0  0  0
 26 27  1  0  0  0  0
 38 40  1  0  0  0  0
 23 25  1  0  0  0  0
 23 24  1  0  0  0  0
 27 42  2  0  0  0  0
 37 42  1  0  0  0  0
 27 28  1  0  0  0  0
 38 41  1  0  0  0  0
 37 38  1  0  0  0  0
 38 39  1  0  0  0  0
 35 37  2  0  0  0  0
 28 29  1  0  0  0  0
 28 30  2  0  0  0  0
 30 35  1  0  0  0  0
 35 36  1  0  0  0  0
 30 31  1  0  0  0  0
 31 33  1  0  0  0  0
 31 32  1  0  0  0  0
 31 34  1  0  0  0  0
M  CHG  1   1  -1
M  END
$$$$
