@<TRIPOS>MOLECULE
lig_48
 42 45 0 0 0
SMALL
GASTEIGER

@<TRIPOS>ATOM
      1 O           3.8100  -50.0800    6.4300 O.co2   1  LIG1       -0.5431
      2 C           2.9400  -49.1700    6.5100 C.2     1  LIG1        0.0881
      3 OXT         3.2800  -47.9700    6.6700 O.co2   1  LIG1       -0.5431
      4 CA          1.5200  -49.6100    6.4100 C.ar    1  LIG1        0.0661
      5 N           1.0100  -51.1700    6.8300 N.ar    1  LIG1       -0.3530
      6 H           1.5300  -51.9500    7.1800 H       1  LIG1        0.1659
      7 C          -0.6500  -51.0200    6.4700 C.ar    1  LIG1        0.0472
      8 C          -1.7400  -51.8800    6.5500 C.ar    1  LIG1       -0.0378
      9 H          -1.5900  -52.9000    6.8900 H       1  LIG1        0.0638
     10 C          -3.0100  -51.4600    6.1900 C.ar    1  LIG1       -0.0598
     11 H          -3.8500  -52.1300    6.2600 H       1  LIG1        0.0618
     12 C          -3.1800  -50.1500    5.7300 C.ar    1  LIG1       -0.0611
     13 H          -4.1700  -49.8000    5.4500 H       1  LIG1        0.0618
     14 C          -2.1000  -49.2800    5.6300 C.ar    1  LIG1       -0.0523
     15 H          -2.2500  -48.2700    5.2600 H       1  LIG1        0.0624
     16 C          -0.8300  -49.7000    6.0100 C.ar    1  LIG1        0.0035
     17 C           0.3700  -48.9100    5.9700 C.ar    1  LIG1       -0.0131
     18 C           0.4000  -47.4900    5.5200 C.3     1  LIG1       -0.0220
     19 H           1.1900  -47.3900    4.7800 H       1  LIG1        0.0315
     20 H          -0.5600  -47.2600    5.0600 H       1  LIG1        0.0315
     21 C           0.6500  -46.4800    6.6000 C.3     1  LIG1       -0.0146
     22 H           0.5300  -45.4900    6.1500 H       1  LIG1        0.0301
     23 H           1.6900  -46.6000    6.9200 H       1  LIG1        0.0301
     24 C          -0.2000  -46.5200    7.8200 C.3     1  LIG1        0.0899
     25 H           0.1100  -45.7300    8.5100 H       1  LIG1        0.0696
     26 H          -0.0800  -47.4900    8.3100 H       1  LIG1        0.0696
     27 O          -1.5300  -46.3400    7.5000 O.3     1  LIG1       -0.4913
     28 C          -2.5500  -46.4800    8.4100 C.ar    1  LIG1        0.1296
     29 C          -3.7600  -45.8600    8.2100 C.ar    1  LIG1        0.0413
     30 C          -4.7700  -46.0300    9.1500 C.ar    1  LIG1        0.0500
     31 C          -4.5700  -46.8300   10.2800 C.ar    1  LIG1       -0.0376
     32 H          -5.3600  -46.9500   11.0100 H       1  LIG1        0.0638
     33 C          -3.3500  -47.4500   10.4700 C.ar    1  LIG1       -0.0563
     34 H          -3.1800  -48.0700   11.3400 H       1  LIG1        0.0619
     35 C          -2.3400  -47.2800    9.5200 C.ar    1  LIG1       -0.0192
     36 H          -1.3800  -47.7700    9.6600 H       1  LIG1        0.0654
     37 N          -5.8800  -45.3200    8.7500 N.ar    1  LIG1       -0.3605
     38 H          -6.7600  -45.2600    9.2300 H       1  LIG1        0.1653
     39 C          -5.5500  -44.6800    7.5200 C.ar    1  LIG1        0.0028
     40 H          -6.2100  -44.0400    6.9400 H       1  LIG1        0.0807
     41 C          -4.2200  -45.0200    7.1900 C.ar    1  LIG1       -0.0332
     42 H          -3.6600  -44.7000    6.3200 H       1  LIG1        0.0640
@<TRIPOS>BOND
     1    18    19    1
     2    18    20    1
     3    14    15    1
     4    12    13    1
     5    17    18    1
     6    18    21    1
     7    12    14   ar
     8    14    16   ar
     9    10    12   ar
    10    16    17   ar
    11     4    17   ar
    12     7    16   ar
    13    21    22    1
    14    10    11    1
    15     8    10   ar
    16    41    42    1
    17     2     4    1
    18     4     5   ar
    19     1     2   ar
    20     7     8   ar
    21     5     7   ar
    22     2     3   ar
    23     8     9    1
    24    21    23    1
    25    21    24    1
    26     5     6    1
    27    39    40    1
    28    39    41   ar
    29    29    41   ar
    30    24    27    1
    31    27    28    1
    32    37    39   ar
    33    24    26    1
    34    24    25    1
    35    28    29   ar
    36    29    30   ar
    37    28    35   ar
    38    30    37   ar
    39    37    38    1
    40    30    31   ar
    41    35    36    1
    42    33    35   ar
    43    31    33   ar
    44    31    32    1
    45    33    34    1
