@<TRIPOS>MOLECULE
lig_26
 43 46 0 0 0
SMALL
GASTEIGER

@<TRIPOS>ATOM
      1 O           3.8100  -50.0800    6.4300 O.co2   1  LIG1       -0.5416
      2 C           2.9400  -49.1700    6.5100 C.2     1  LIG1        0.1072
      3 O           3.2800  -47.9700    6.6700 O.co2   1  LIG1       -0.5416
      4 C           1.5200  -49.6100    6.4100 C.ar    1  LIG1        0.1545
      5 O           1.0100  -51.1700    6.8300 O.2     1  LIG1       -0.4533
      6 C          -0.6500  -51.0200    6.4700 C.ar    1  LIG1        0.1360
      7 C          -1.7400  -51.8800    6.5500 C.ar    1  LIG1       -0.0187
      8 H          -1.5900  -52.9000    6.8900 H       1  LIG1        0.0654
      9 C          -3.0100  -51.4600    6.1900 C.ar    1  LIG1       -0.0582
     10 H          -3.8500  -52.1300    6.2600 H       1  LIG1        0.0619
     11 C          -3.1800  -50.1500    5.7300 C.ar    1  LIG1       -0.0610
     12 H          -4.1700  -49.8000    5.4500 H       1  LIG1        0.0618
     13 C          -2.1000  -49.2800    5.6300 C.ar    1  LIG1       -0.0507
     14 H          -2.2500  -48.2700    5.2600 H       1  LIG1        0.0625
     15 C          -0.8300  -49.7000    6.0100 C.ar    1  LIG1        0.0240
     16 C           0.3700  -48.9100    5.9700 C.ar    1  LIG1        0.0074
     17 C           0.4000  -47.4900    5.5200 C.3     1  LIG1       -0.0204
     18 H           1.1900  -47.3900    4.7800 H       1  LIG1        0.0316
     19 H          -0.5600  -47.2600    5.0600 H       1  LIG1        0.0316
     20 C           0.6500  -46.4800    6.6000 C.3     1  LIG1       -0.0145
     21 H           0.5300  -45.4900    6.1500 H       1  LIG1        0.0301
     22 H           1.6900  -46.6000    6.9200 H       1  LIG1        0.0301
     23 C          -0.2000  -46.5200    7.8200 C.3     1  LIG1        0.0899
     24 H           0.0400  -45.6700    8.4600 H       1  LIG1        0.0696
     25 H           0.0000  -47.4400    8.3700 H       1  LIG1        0.0696
     26 O          -1.5400  -46.4700    7.4900 O.3     1  LIG1       -0.4913
     27 C          -2.5500  -46.5300    8.4200 C.ar    1  LIG1        0.1282
     28 C          -3.7500  -45.9100    8.1800 C.ar    1  LIG1        0.0238
     29 C          -4.7500  -46.0000    9.1500 C.ar    1  LIG1       -0.0144
     30 C          -4.5400  -46.7000   10.3500 C.ar    1  LIG1       -0.0538
     31 H          -5.3300  -46.7500   11.0900 H       1  LIG1        0.0624
     32 C          -3.3200  -47.3200   10.5600 C.ar    1  LIG1       -0.0577
     33 H          -3.1500  -47.8600   11.4800 H       1  LIG1        0.0619
     34 C          -2.3200  -47.2400    9.5900 C.ar    1  LIG1       -0.0193
     35 H          -1.3800  -47.7300    9.7600 H       1  LIG1        0.0654
     36 C          -5.9900  -45.3600    8.9200 C.ar    1  LIG1       -0.0539
     37 H          -6.7700  -45.4300    9.6600 H       1  LIG1        0.0624
     38 C          -6.2300  -44.6600    7.7400 C.ar    1  LIG1       -0.0612
     39 H          -7.1900  -44.1800    7.5800 H       1  LIG1        0.0618
     40 C          -5.2300  -44.5700    6.7700 C.ar    1  LIG1       -0.0611
     41 H          -5.4200  -44.0200    5.8500 H       1  LIG1        0.0618
     42 C          -4.0000  -45.1800    6.9700 C.ar    1  LIG1       -0.0505
     43 H          -3.2300  -45.1100    6.2200 H       1  LIG1        0.0625
@<TRIPOS>BOND
     1    17    18    1
     2    17    19    1
     3    13    14    1
     4    11    12    1
     5    16    17    1
     6    17    20    1
     7    11    13   ar
     8    13    15   ar
     9     9    11   ar
    10    40    41    1
    11    15    16   ar
    12     4    16   ar
    13     6    15   ar
    14    20    21    1
    15     9    10    1
    16     7     9   ar
    17    42    43    1
    18     2     4    1
    19     4     5   ar
    20     1     2   ar
    21     6     7   ar
    22     5     6   ar
    23     2     3   ar
    24     7     8    1
    25    20    22    1
    26    20    23    1
    27    40    42   ar
    28    38    40   ar
    29    28    42   ar
    30    23    26    1
    31    26    27    1
    32    38    39    1
    33    36    38   ar
    34    23    25    1
    35    23    24    1
    36    27    28   ar
    37    28    29   ar
    38    27    34   ar
    39    29    36   ar
    40    36    37    1
    41    29    30   ar
    42    34    35    1
    43    32    34   ar
    44    30    32   ar
    45    30    31    1
    46    32    33    1
