@<TRIPOS>MOLECULE
lig_45
 48 51 0 0 0
SMALL
GASTEIGER

@<TRIPOS>ATOM
      1 O           3.8100  -50.0800    6.4300 O.co2   1  LIG1       -0.5431
      2 C           2.9400  -49.1700    6.5100 C.2     1  LIG1        0.0881
      3 OXT         3.2800  -47.9700    6.6700 O.co2   1  LIG1       -0.5431
      4 CA          1.5200  -49.6100    6.4100 C.ar    1  LIG1        0.0661
      5 N           1.0100  -51.1700    6.8300 N.ar    1  LIG1       -0.3530
      6 H           1.5300  -51.9500    7.1800 H       1  LIG1        0.1659
      7 C          -0.6500  -51.0200    6.4700 C.ar    1  LIG1        0.0472
      8 C          -1.7400  -51.8800    6.5500 C.ar    1  LIG1       -0.0378
      9 H          -1.5900  -52.9000    6.8900 H       1  LIG1        0.0638
     10 C          -3.0100  -51.4600    6.1900 C.ar    1  LIG1       -0.0598
     11 H          -3.8500  -52.1300    6.2600 H       1  LIG1        0.0618
     12 C          -3.1800  -50.1500    5.7300 C.ar    1  LIG1       -0.0611
     13 H          -4.1700  -49.8000    5.4500 H       1  LIG1        0.0618
     14 C          -2.1000  -49.2800    5.6300 C.ar    1  LIG1       -0.0523
     15 H          -2.2500  -48.2700    5.2600 H       1  LIG1        0.0624
     16 C          -0.8300  -49.7000    6.0100 C.ar    1  LIG1        0.0035
     17 C           0.3700  -48.9100    5.9700 C.ar    1  LIG1       -0.0131
     18 C           0.4000  -47.4900    5.5200 C.3     1  LIG1       -0.0220
     19 H           1.1900  -47.3900    4.7800 H       1  LIG1        0.0315
     20 H          -0.5600  -47.2600    5.0600 H       1  LIG1        0.0315
     21 C           0.6500  -46.4800    6.6000 C.3     1  LIG1       -0.0146
     22 H           0.5300  -45.4900    6.1500 H       1  LIG1        0.0301
     23 H           1.6900  -46.6000    6.9200 H       1  LIG1        0.0301
     24 C          -0.2000  -46.5200    7.8200 C.3     1  LIG1        0.0899
     25 H           0.0400  -45.6700    8.4600 H       1  LIG1        0.0696
     26 H           0.0000  -47.4400    8.3700 H       1  LIG1        0.0696
     27 O          -1.5400  -46.4700    7.4900 O.3     1  LIG1       -0.4917
     28 C          -2.5500  -46.5300    8.4200 C.ar    1  LIG1        0.1239
     29 C          -2.3700  -47.2100    9.6000 C.ar    1  LIG1       -0.0197
     30 H          -1.4300  -47.7100    9.8100 H       1  LIG1        0.0654
     31 C          -3.4200  -47.2400   10.5200 C.ar    1  LIG1       -0.0580
     32 H          -3.2900  -47.7700   11.4500 H       1  LIG1        0.0619
     33 C          -4.6300  -46.6100   10.2600 C.ar    1  LIG1       -0.0581
     34 H          -5.4300  -46.6400   10.9800 H       1  LIG1        0.0620
     35 C          -4.7900  -45.9300    9.0600 C.ar    1  LIG1       -0.0407
     36 C          -3.7400  -45.8800    8.1400 C.ar    1  LIG1       -0.0025
     37 C          -3.9200  -45.2700    6.8000 C.3     1  LIG1       -0.0240
     38 H          -2.9900  -44.7600    6.5400 H       1  LIG1        0.0314
     39 H          -4.1100  -46.0700    6.0900 H       1  LIG1        0.0314
     40 C          -5.0600  -44.2600    6.6900 C.3     1  LIG1       -0.0486
     41 H          -5.2800  -44.1000    5.6400 H       1  LIG1        0.0269
     42 H          -4.7400  -43.3200    7.1500 H       1  LIG1        0.0269
     43 C          -6.3200  -44.7600    7.3900 C.3     1  LIG1       -0.0488
     44 H          -6.7000  -45.6300    6.8600 H       1  LIG1        0.0268
     45 H          -7.0700  -43.9700    7.3600 H       1  LIG1        0.0268
     46 C          -6.0500  -45.1400    8.8400 C.3     1  LIG1       -0.0273
     47 H          -6.8900  -45.7300    9.2000 H       1  LIG1        0.0313
     48 H          -5.9800  -44.2200    9.4200 H       1  LIG1        0.0313
@<TRIPOS>BOND
     1    18    19    1
     2    18    20    1
     3    14    15    1
     4    12    13    1
     5    17    18    1
     6    18    21    1
     7    12    14   ar
     8    14    16   ar
     9    40    41    1
    10    10    12   ar
    11    16    17   ar
    12     4    17   ar
    13     7    16   ar
    14    37    39    1
    15    21    22    1
    16    10    11    1
    17     8    10   ar
    18     2     4    1
    19     4     5   ar
    20     1     2   ar
    21     7     8   ar
    22     5     7   ar
    23     2     3   ar
    24    37    38    1
    25     8     9    1
    26    21    23    1
    27    21    24    1
    28    37    40    1
    29    40    42    1
    30    40    43    1
    31    36    37    1
    32     5     6    1
    33    43    44    1
    34    43    45    1
    35    43    46    1
    36    24    27    1
    37    27    28    1
    38    24    26    1
    39    24    25    1
    40    28    36   ar
    41    35    36   ar
    42    28    29   ar
    43    35    46    1
    44    46    47    1
    45    46    48    1
    46    33    35   ar
    47    29    30    1
    48    29    31   ar
    49    31    33   ar
    50    33    34    1
    51    31    32    1
