@<TRIPOS>MOLECULE
lig_62
 43 46 0 0 0
SMALL
GASTEIGER

@<TRIPOS>ATOM
      1 O           3.8100  -50.0800    6.4300 O.co2   1  LIG1       -0.5441
      2 C           2.9400  -49.1700    6.5100 C.2     1  LIG1        0.0785
      3 O           3.2800  -47.9700    6.6700 O.co2   1  LIG1       -0.5441
      4 C           1.5200  -49.6100    6.4100 C.ar    1  LIG1        0.0389
      5 S           1.0100  -51.1700    6.8300 S.2     1  LIG1       -0.0867
      6 C          -0.6500  -51.0200    6.4700 C.ar    1  LIG1        0.0216
      7 C          -1.7400  -51.8800    6.5500 C.ar    1  LIG1       -0.0473
      8 H          -1.5900  -52.9000    6.8900 H       1  LIG1        0.0629
      9 C          -3.0100  -51.4600    6.1900 C.ar    1  LIG1       -0.0593
     10 H          -3.8500  -52.1300    6.2600 H       1  LIG1        0.0618
     11 C          -3.1800  -50.1500    5.7300 C.ar    1  LIG1       -0.0427
     12 H          -4.1700  -49.8000    5.4500 H       1  LIG1        0.0632
     13 C          -2.1000  -49.2800    5.6300 C.ar    1  LIG1        0.0495
     14 CL         -2.3400  -47.6500    5.0400 Cl      1  LIG1       -0.0829
     15 C          -0.8300  -49.7000    6.0100 C.ar    1  LIG1        0.0113
     16 C           0.3700  -48.9100    5.9700 C.ar    1  LIG1       -0.0222
     17 C           0.4000  -47.4900    5.5200 C.3     1  LIG1       -0.0229
     18 H           1.1900  -47.3900    4.7800 H       1  LIG1        0.0315
     19 H          -0.5600  -47.2600    5.0600 H       1  LIG1        0.0315
     20 C           0.6500  -46.4800    6.6000 C.3     1  LIG1       -0.0146
     21 H           0.5300  -45.4900    6.1500 H       1  LIG1        0.0301
     22 H           1.6900  -46.6000    6.9200 H       1  LIG1        0.0301
     23 C          -0.2000  -46.5200    7.8200 C.3     1  LIG1        0.0899
     24 H           0.0400  -45.6700    8.4600 H       1  LIG1        0.0696
     25 H           0.0000  -47.4400    8.3700 H       1  LIG1        0.0696
     26 O          -1.5400  -46.4700    7.4900 O.3     1  LIG1       -0.4913
     27 C          -2.5500  -46.5300    8.4200 C.ar    1  LIG1        0.1282
     28 C          -2.3700  -47.2100    9.6000 C.ar    1  LIG1       -0.0193
     29 H          -1.4300  -47.7100    9.8100 H       1  LIG1        0.0654
     30 C          -3.4200  -47.2400   10.5200 C.ar    1  LIG1       -0.0577
     31 H          -3.2900  -47.7700   11.4500 H       1  LIG1        0.0619
     32 C          -4.6300  -46.6100   10.2600 C.ar    1  LIG1       -0.0538
     33 H          -5.4300  -46.6400   10.9800 H       1  LIG1        0.0624
     34 C          -4.7900  -45.9300    9.0600 C.ar    1  LIG1       -0.0144
     35 C          -3.7400  -45.8800    8.1400 C.ar    1  LIG1        0.0238
     36 C          -3.9100  -45.1800    6.9300 C.ar    1  LIG1       -0.0505
     37 H          -3.1000  -45.1400    6.2200 H       1  LIG1        0.0625
     38 C          -5.1100  -44.5300    6.6400 C.ar    1  LIG1       -0.0611
     39 H          -5.2300  -43.9900    5.7000 H       1  LIG1        0.0618
     40 C          -6.1700  -44.5700    7.5500 C.ar    1  LIG1       -0.0612
     41 H          -7.1000  -44.0700    7.3200 H       1  LIG1        0.0618
     42 C          -6.0200  -45.2600    8.7500 C.ar    1  LIG1       -0.0539
     43 H          -6.8400  -45.2900    9.4600 H       1  LIG1        0.0624
@<TRIPOS>BOND
     1    17    18    1
     2    13    14    1
     3    17    19    1
     4    11    12    1
     5    16    17    1
     6    17    20    1
     7    11    13   ar
     8    13    15   ar
     9    38    39    1
    10     9    11   ar
    11    15    16   ar
    12     4    16   ar
    13     6    15   ar
    14    20    21    1
    15     9    10    1
    16     7     9   ar
    17    36    37    1
    18     2     4    1
    19     4     5   ar
    20     1     2   ar
    21     6     7   ar
    22     5     6   ar
    23     2     3   ar
    24     7     8    1
    25    20    22    1
    26    20    23    1
    27    36    38   ar
    28    38    40   ar
    29    35    36   ar
    30    40    41    1
    31    23    26    1
    32    26    27    1
    33    40    42   ar
    34    23    25    1
    35    23    24    1
    36    27    35   ar
    37    34    35   ar
    38    27    28   ar
    39    34    42   ar
    40    42    43    1
    41    32    34   ar
    42    28    29    1
    43    28    30   ar
    44    30    32   ar
    45    32    33    1
    46    30    31    1
