@<TRIPOS>MOLECULE
lig_39
 48 51 0 0 0
SMALL
GASTEIGER

@<TRIPOS>ATOM
      1 O           3.8100  -50.0800    6.4300 O.co2   1  LIG1       -0.5431
      2 C           2.9400  -49.1700    6.5100 C.2     1  LIG1        0.0881
      3 OXT         3.2800  -47.9700    6.6700 O.co2   1  LIG1       -0.5431
      4 CA          1.5200  -49.6100    6.4100 C.ar    1  LIG1        0.0661
      5 N           1.0100  -51.1700    6.8300 N.ar    1  LIG1       -0.3530
      6 H           1.5300  -51.9500    7.1800 H       1  LIG1        0.1659
      7 C          -0.6500  -51.0200    6.4700 C.ar    1  LIG1        0.0472
      8 C          -1.7400  -51.8800    6.5500 C.ar    1  LIG1       -0.0378
      9 H          -1.5900  -52.9000    6.8900 H       1  LIG1        0.0638
     10 C          -3.0100  -51.4600    6.1900 C.ar    1  LIG1       -0.0598
     11 H          -3.8500  -52.1300    6.2600 H       1  LIG1        0.0618
     12 C          -3.1800  -50.1500    5.7300 C.ar    1  LIG1       -0.0611
     13 H          -4.1700  -49.8000    5.4500 H       1  LIG1        0.0618
     14 C          -2.1000  -49.2800    5.6300 C.ar    1  LIG1       -0.0523
     15 H          -2.2500  -48.2700    5.2600 H       1  LIG1        0.0624
     16 C          -0.8300  -49.7000    6.0100 C.ar    1  LIG1        0.0035
     17 C           0.3700  -48.9100    5.9700 C.ar    1  LIG1       -0.0131
     18 C           0.4000  -47.4900    5.5200 C.3     1  LIG1       -0.0220
     19 H           1.1900  -47.3900    4.7800 H       1  LIG1        0.0315
     20 H          -0.5600  -47.2600    5.0600 H       1  LIG1        0.0315
     21 C           0.6500  -46.4800    6.6000 C.3     1  LIG1       -0.0146
     22 H           0.6300  -45.5000    6.1300 H       1  LIG1        0.0301
     23 H           1.6500  -46.6700    6.9900 H       1  LIG1        0.0301
     24 C          -0.2800  -46.4300    7.7600 C.3     1  LIG1        0.0899
     25 H          -0.0300  -45.5900    8.4000 H       1  LIG1        0.0696
     26 H          -0.1900  -47.3600    8.3300 H       1  LIG1        0.0696
     27 O          -1.5900  -46.2900    7.3300 O.3     1  LIG1       -0.4920
     28 C          -2.6600  -46.2600    8.1900 C.ar    1  LIG1        0.1205
     29 C          -2.6200  -46.9200    9.3900 C.ar    1  LIG1       -0.0194
     30 H          -1.7400  -47.4900    9.6800 H       1  LIG1        0.0654
     31 C          -3.7300  -46.8600   10.2300 C.ar    1  LIG1       -0.0506
     32 H          -3.7000  -47.3800   11.1800 H       1  LIG1        0.0625
     33 C          -4.8700  -46.1400    9.8700 C.ar    1  LIG1       -0.0177
     34 C          -4.8900  -45.4700    8.6600 C.ar    1  LIG1       -0.0506
     35 H          -5.7700  -44.9100    8.3700 H       1  LIG1        0.0625
     36 C          -3.7800  -45.5300    7.8200 C.ar    1  LIG1       -0.0194
     37 H          -3.8000  -45.0000    6.8700 H       1  LIG1        0.0654
     38 C          -8.1400  -45.9900   12.4200 C.ar    1  LIG1       -0.0617
     39 H          -9.0000  -45.9500   13.0900 H       1  LIG1        0.0618
     40 C          -7.4900  -44.8100   12.0500 C.ar    1  LIG1       -0.0612
     41 H          -7.8400  -43.8500   12.4300 H       1  LIG1        0.0618
     42 C          -6.3900  -44.8600   11.2000 C.ar    1  LIG1       -0.0540
     43 H          -5.8800  -43.9400   10.9100 H       1  LIG1        0.0624
     44 C          -5.9400  -46.0900   10.7100 C.ar    1  LIG1       -0.0179
     45 C          -6.5900  -47.2700   11.0800 C.ar    1  LIG1       -0.0540
     46 H          -6.2400  -48.2200   10.7000 H       1  LIG1        0.0624
     47 C          -7.6900  -47.2200   11.9300 C.ar    1  LIG1       -0.0612
     48 H          -8.2000  -48.1300   12.2200 H       1  LIG1        0.0618
@<TRIPOS>BOND
     1    18    19    1
     2    18    20    1
     3    14    15    1
     4    12    13    1
     5    17    18    1
     6    18    21    1
     7    12    14   ar
     8    14    16   ar
     9    10    12   ar
    10    16    17   ar
    11     4    17   ar
    12     7    16   ar
    13    21    22    1
    14    10    11    1
    15     8    10   ar
    16     2     4    1
    17     4     5   ar
    18     1     2   ar
    19     7     8   ar
    20     5     7   ar
    21     2     3   ar
    22     8     9    1
    23    21    23    1
    24    21    24    1
    25     5     6    1
    26    36    37    1
    27    24    27    1
    28    27    28    1
    29    24    26    1
    30    24    25    1
    31    28    36   ar
    32    34    36   ar
    33    28    29   ar
    34    34    35    1
    35    33    34   ar
    36    29    30    1
    37    29    31   ar
    38    31    33   ar
    39    33    44    1
    40    31    32    1
    41    45    46    1
    42    44    45   ar
    43    42    44   ar
    44    42    43    1
    45    45    47   ar
    46    40    42   ar
    47    47    48    1
    48    38    47   ar
    49    38    40   ar
    50    40    41    1
    51    38    39    1
