CatS_139
 OpenBabel05281909343D

 86 90  0  0  1  0  0  0  0  0999 V2000
   -0.1248   16.1701   -5.7827 C   0  0  1  0  0  0  0  0  0  0  0  0
   -1.1910   15.5857   -4.8380 C   0  0  0  0  0  0  0  0  0  0  0  0
   -1.6669   14.2210   -5.3740 C   0  0  0  0  0  0  0  0  0  0  0  0
   -2.2337   14.3439   -6.7312 N   0  3  1  0  0  0  0  0  0  0  0  0
   -1.2230   14.8909   -7.6592 C   0  0  0  0  0  0  0  0  0  0  0  0
   -0.7221   16.2749   -7.1989 C   0  0  0  0  0  0  0  0  0  0  0  0
   -2.7051   13.0260   -7.1970 C   0  0  0  0  0  0  0  0  0  0  0  0
   -3.4129   13.0569   -8.5710 C   0  0  1  0  0  0  0  0  0  0  0  0
   -3.3396   11.6548   -9.2000 C   0  0  0  0  0  0  0  0  0  0  0  0
   -4.3388   10.6963   -8.7086 N   0  0  0  0  0  0  0  0  0  0  0  0
   -5.5309   10.3253   -9.2411 C   0  0  0  0  0  0  0  0  0  0  0  0
   -6.2051    9.4820   -8.4578 C   0  0  0  0  0  0  0  0  0  0  0  0
   -5.3400    9.2808   -7.3580 C   0  0  0  0  0  0  0  0  0  0  0  0
   -4.2644   10.0229   -7.5359 N   0  0  0  0  0  0  0  0  0  0  0  0
   -5.5280    8.4130   -6.2060 C   0  0  0  0  0  0  0  0  0  0  0  0
   -4.4680    7.7390   -5.6283 C   0  0  0  0  0  0  0  0  0  0  0  0
   -4.6602    6.9417   -4.5283 C   0  0  0  0  0  0  0  0  0  0  0  0
   -5.9101    6.7699   -3.9696 C   0  0  0  0  0  0  0  0  0  0  0  0
   -6.9760    7.4402   -4.5579 C   0  0  0  0  0  0  0  0  0  0  0  0
   -6.7839    8.2538   -5.6505 C   0  0  0  0  0  0  0  0  0  0  0  0
   -8.6622    7.2887   -3.9530 S   0  0  0  0  0  0  0  0  0  0  0  0
   -9.2127    8.9474   -3.4728 C   0  0  0  0  0  0  0  0  0  0  0  0
   -8.0196    9.8150   -3.0206 C   0  0  0  0  0  0  0  0  0  0  0  0
   -8.4067   10.8677   -2.0652 N   0  3  2  0  0  0  0  0  0  0  0  0
   -9.7688   11.3440   -2.3741 C   0  0  0  0  0  0  0  0  0  0  0  0
  -10.2310   12.4113   -1.3618 C   0  0  0  0  0  0  0  0  0  0  0  0
   -9.2439   13.5920   -1.3596 C   0  0  2  0  0  0  0  0  0  0  0  0
   -7.8202   13.0743   -1.0855 C   0  0  0  0  0  0  0  0  0  0  0  0
   -7.4532   11.9951   -2.1229 C   0  0  0  0  0  0  0  0  0  0  0  0
   -5.9448    5.8566   -2.7419 C   0  0  0  0  0  0  0  0  0  0  0  0
   -4.9474    4.8882   -2.7812 F   0  0  0  0  0  0  0  0  0  0  0  0
   -7.1419    5.1656   -2.5930 F   0  0  0  0  0  0  0  0  0  0  0  0
   -5.7381    6.5908   -1.5778 F   0  0  0  0  0  0  0  0  0  0  0  0
   -7.5838    8.9491   -8.8236 C   0  0  0  0  0  0  0  0  0  0  0  0
   -8.2561    9.7459   -9.8749 N   0  0  0  0  0  0  0  0  0  0  0  0
   -7.3183    9.9450  -11.0007 C   0  0  0  0  0  0  0  0  0  0  0  0
   -6.0940   10.7933  -10.5729 C   0  0  0  0  0  0  0  0  0  0  0  0
   -9.7913    9.3099  -10.1696 S   0  0  0  0  0  0  0  0  0  0  0  0
   -9.8660    7.9422   -9.7666 O   0  0  0  0  0  0  0  0  0  0  0  0
  -10.0690    9.5801  -11.5448 O   0  0  0  0  0  0  0  0  0  0  0  0
  -10.9189   10.2894   -9.1310 C   0  0  0  0  0  0  0  0  0  0  0  0
   -9.5603   14.3840   -0.5173 F   0  0  0  0  0  0  0  0  0  0  0  0
    0.2259   17.2506   -5.3976 F   0  0  0  0  0  0  0  0  0  0  0  0
   -4.5658   13.3633   -8.4238 O   0  0  0  0  0  0  0  0  0  0  0  0
    0.8142   15.4251   -5.8329 H   0  0  0  0  0  0  0  0  0  0  0  0
   -0.7249   15.4543   -3.7390 H   0  0  0  0  0  0  0  0  0  0  0  0
   -2.1308   16.3300   -4.7863 H   0  0  0  0  0  0  0  0  0  0  0  0
   -2.5056   13.8241   -4.6131 H   0  0  0  0  0  0  0  0  0  0  0  0
   -0.7430   13.4539   -5.3879 H   0  0  0  0  0  0  0  0  0  0  0  0
   -1.7002   15.0320   -8.7495 H   0  0  0  0  0  0  0  0  0  0  0  0
   -0.2800   14.1496   -7.7232 H   0  0  0  0  0  0  0  0  0  0  0  0
    0.1173   16.6709   -7.9590 H   0  0  0  0  0  0  0  0  0  0  0  0
   -1.6448   17.0421   -7.1908 H   0  0  0  0  0  0  0  0  0  0  0  0
   -3.5301   12.6211   -6.4257 H   0  0  0  0  0  0  0  0  0  0  0  0
   -1.8131   12.2237   -7.2249 H   0  0  0  0  0  0  0  0  0  0  0  0
   -2.8849   13.8324   -9.3195 H   0  0  0  0  0  0  0  0  0  0  0  0
   -3.4749   11.7687  -10.3871 H   0  0  0  0  0  0  0  0  0  0  0  0
   -2.2549   11.1930   -8.9842 H   0  0  0  0  0  0  0  0  0  0  0  0
   -3.5484    7.8382   -6.0088 H   0  0  0  0  0  0  0  0  0  0  0  0
   -3.8721    6.4756   -4.1254 H   0  0  0  0  0  0  0  0  0  0  0  0
   -7.5650    8.7321   -6.0519 H   0  0  0  0  0  0  0  0  0  0  0  0
   -9.7312    9.4498   -4.4319 H   0  0  0  0  0  0  0  0  0  0  0  0
  -10.0246    8.8693   -2.5915 H   0  0  0  0  0  0  0  0  0  0  0  0
   -7.5948   10.3442   -4.0117 H   0  0  0  0  0  0  0  0  0  0  0  0
   -7.1413    9.1328   -2.5673 H   0  0  0  0  0  0  0  0  0  0  0  0
  -10.5487   10.4348   -2.3165 H   0  0  0  0  0  0  0  0  0  0  0  0
   -9.7885   11.8011   -3.4839 H   0  0  0  0  0  0  0  0  0  0  0  0
  -10.2651   11.9165   -0.2698 H   0  0  0  0  0  0  0  0  0  0  0  0
  -11.3258   12.8012   -1.6601 H   0  0  0  0  0  0  0  0  0  0  0  0
   -7.0420   13.9838   -1.1573 H   0  0  0  0  0  0  0  0  0  0  0  0
   -7.7745   12.5992    0.0150 H   0  0  0  0  0  0  0  0  0  0  0  0
   -7.4594   12.4814   -3.2210 H   0  0  0  0  0  0  0  0  0  0  0  0
   -6.3404   11.6217   -1.8748 H   0  0  0  0  0  0  0  0  0  0  0  0
   -7.4863    7.8081   -9.1818 H   0  0  0  0  0  0  0  0  0  0  0  0
   -8.2799    8.9946   -7.8457 H   0  0  0  0  0  0  0  0  0  0  0  0
   -6.9428    8.8781  -11.4009 H   0  0  0  0  0  0  0  0  0  0  0  0
   -7.8698   10.5230  -11.8948 H   0  0  0  0  0  0  0  0  0  0  0  0
   -6.4274   11.9414  -10.4685 H   0  0  0  0  0  0  0  0  0  0  0  0
   -5.2558   10.6983  -11.4260 H   0  0  0  0  0  0  0  0  0  0  0  0
  -11.0140   11.4133   -9.5426 H   0  0  0  0  0  0  0  0  0  0  0  0
  -12.0133    9.7992   -9.1413 H   0  0  0  0  0  0  0  0  0  0  0  0
  -10.5205   10.3162   -7.9994 H   0  0  0  0  0  0  0  0  0  0  0  0
   -9.2595   14.0938   -2.4520 H   0  0  0  0  0  0  0  0  0  0  0  0
   -2.9459   14.9137   -6.7059 H   0  0  0  0  0  0  0  0  0  0  0  0
   -8.4049   10.5163   -1.2236 H   0  0  0  0  0  0  0  0  0  0  0  0
   -5.0535   13.3860   -9.3034 H   0  0  0  0  0  0  0  0  0  0  0  0
  1  2  1  0  0  0  0
  1  6  1  0  0  0  0
  1 45  1  6  0  0  0
  2  3  1  0  0  0  0
  2 46  1  0  0  0  0
  2 47  1  0  0  0  0
  3  4  1  0  0  0  0
  3 48  1  0  0  0  0
  3 49  1  0  0  0  0
  4  5  1  0  0  0  0
  4  7  1  0  0  0  0
  4 84  1  1  0  0  0
  5  6  1  0  0  0  0
  5 50  1  0  0  0  0
  5 51  1  0  0  0  0
  6 52  1  0  0  0  0
  6 53  1  0  0  0  0
  7  8  1  0  0  0  0
  7 54  1  0  0  0  0
  7 55  1  0  0  0  0
  8  9  1  0  0  0  0
  8 44  1  0  0  0  0
  8 56  1  6  0  0  0
  9 10  1  0  0  0  0
  9 57  1  0  0  0  0
  9 58  1  0  0  0  0
 10 11  1  0  0  0  0
 10 14  1  0  0  0  0
 11 12  2  0  0  0  0
 11 37  1  0  0  0  0
 12 13  1  0  0  0  0
 12 34  1  0  0  0  0
 13 14  2  0  0  0  0
 13 15  1  0  0  0  0
 15 16  2  0  0  0  0
 15 20  1  0  0  0  0
 16 17  1  0  0  0  0
 16 59  1  0  0  0  0
 17 18  2  0  0  0  0
 17 60  1  0  0  0  0
 18 19  1  0  0  0  0
 18 30  1  0  0  0  0
 19 20  2  0  0  0  0
 19 21  1  0  0  0  0
 20 61  1  0  0  0  0
 21 22  1  0  0  0  0
 22 23  1  0  0  0  0
 22 62  1  0  0  0  0
 22 63  1  0  0  0  0
 23 24  1  0  0  0  0
 23 64  1  0  0  0  0
 23 65  1  0  0  0  0
 24 25  1  0  0  0  0
 24 29  1  0  0  0  0
 24 85  1  1  0  0  0
 25 26  1  0  0  0  0
 25 66  1  0  0  0  0
 25 67  1  0  0  0  0
 26 27  1  0  0  0  0
 26 68  1  0  0  0  0
 26 69  1  0  0  0  0
 27 28  1  0  0  0  0
 27 42  1  0  0  0  0
 27 83  1  6  0  0  0
 28 29  1  0  0  0  0
 28 70  1  0  0  0  0
 28 71  1  0  0  0  0
 29 72  1  0  0  0  0
 29 73  1  0  0  0  0
 30 31  1  0  0  0  0
 30 32  1  0  0  0  0
 30 33  1  0  0  0  0
 34 35  1  0  0  0  0
 34 74  1  0  0  0  0
 34 75  1  0  0  0  0
 35 36  1  0  0  0  0
 35 38  1  0  0  0  0
 36 37  1  0  0  0  0
 36 76  1  0  0  0  0
 36 77  1  0  0  0  0
 37 78  1  0  0  0  0
 37 79  1  0  0  0  0
 38 39  2  0  0  0  0
 38 40  2  0  0  0  0
 38 41  1  0  0  0  0
 41 80  1  0  0  0  0
 41 81  1  0  0  0  0
 41 82  1  0  0  0  0
 43  1  1  0  0  0  0
 44 86  1  0  0  0  0
M  CHG  2   4   1  24   1
M  END
$$$$
