# Molecule written by the XED library from Cresset
@<TRIPOS>MOLECULE
CatS_139
    86     90      1
SMALL
USER_CHARGES
@<TRIPOS>ATOM
      1  C4         -0.1248   16.1701   -5.7827 C.3       1 MOL1        0.0498
      2  C5         -1.1910   15.5857   -4.8380 C.3       1 MOL1       -0.0467
      3  C6         -1.6669   14.2210   -5.3740 C.3       1 MOL1       -0.0565
      4  N2         -2.2337   14.3439   -6.7312 N.4       1 MOL1       -0.2281
      5  C7         -1.2230   14.8909   -7.6592 C.3       1 MOL1       -0.0565
      6  C8         -0.7221   16.2749   -7.1989 C.3       1 MOL1       -0.0467
      7  C9         -2.7051   13.0260   -7.1970 C.3       1 MOL1       -0.0328
      8  C10        -3.4129   13.0569   -8.5710 C.3       1 MOL1        0.0191
      9  C11        -3.3396   11.6548   -9.2000 C.3       1 MOL1        0.0979
     10  N3         -4.3388   10.6963   -8.7086 N.pl3     1 MOL1       -0.0670
     11  C12        -5.5309   10.3253   -9.2411 C.ar      1 MOL1        0.0572
     12  C13        -6.2051    9.4820   -8.4578 C.ar      1 MOL1       -0.0684
     13  C14        -5.3400    9.2808   -7.3580 C.ar      1 MOL1        0.0392
     14  N4         -4.2644   10.0229   -7.5359 N.2       1 MOL1       -0.2943
     15  C15        -5.5280    8.4130   -6.2060 C.ar      1 MOL1       -0.0066
     16  C16        -4.4680    7.7390   -5.6283 C.ar      1 MOL1       -0.0846
     17  C17        -4.6602    6.9417   -4.5283 C.ar      1 MOL1       -0.0687
     18  C18        -5.9101    6.7699   -3.9696 C.ar      1 MOL1        0.0171
     19  C19        -6.9760    7.4402   -4.5579 C.ar      1 MOL1        0.0480
     20  C20        -6.7839    8.2538   -5.6505 C.ar      1 MOL1       -0.0655
     21  S1         -8.6622    7.2887   -3.9530 S.3       1 MOL1       -0.1783
     22  C21        -9.2127    8.9474   -3.4728 C.3       1 MOL1       -0.0087
     23  C22        -8.0196    9.8150   -3.0206 C.3       1 MOL1       -0.0441
     24  N5         -8.4067   10.8677   -2.0652 N.4       1 MOL1       -0.2284
     25  C23        -9.7688   11.3440   -2.3741 C.3       1 MOL1       -0.0566
     26  C24       -10.2310   12.4113   -1.3618 C.3       1 MOL1       -0.0467
     27  C25        -9.2439   13.5920   -1.3596 C.3       1 MOL1        0.0498
     28  C26        -7.8202   13.0743   -1.0855 C.3       1 MOL1       -0.0467
     29  C27        -7.4532   11.9951   -2.1229 C.3       1 MOL1       -0.0566
     30  C28        -5.9448    5.8566   -2.7419 C.3       1 MOL1        0.4149
     31  F1         -4.9474    4.8882   -2.7812 F         1 MOL1       -0.1514
     32  F2         -7.1419    5.1656   -2.5930 F         1 MOL1       -0.1514
     33  F3         -5.7381    6.5908   -1.5778 F         1 MOL1       -0.1514
     34  C29        -7.5838    8.9491   -8.8236 C.3       1 MOL1        0.1169
     35  N6         -8.2561    9.7459   -9.8749 N.3       1 MOL1       -0.4606
     36  C30        -7.3183    9.9450  -11.0007 C.3       1 MOL1        0.0844
     37  C31        -6.0940   10.7933  -10.5729 C.3       1 MOL1       -0.0158
     38  S2         -9.7913    9.3099  -10.1696 S.3       1 MOL1        0.4316
     39  O3         -9.8660    7.9422   -9.7666 O.2       1 MOL1       -0.3139
     40  O4        -10.0690    9.5801  -11.5448 O.2       1 MOL1       -0.3139
     41  C32       -10.9189   10.2894   -9.1310 C.3       1 MOL1        0.0421
     42  H33        -9.5603   14.3840   -0.5173 F         1 MOL1       -0.2169
     43  H           0.2259   17.2506   -5.3976 F         1 MOL1       -0.2169
     44  H18        -4.5658   13.3633   -8.4238 O.3       1 MOL1       -0.4408
     45  H7          0.8142   15.4251   -5.8329 H         1 MOL1        0.0735
     46  H8         -0.7249   15.4543   -3.7390 H         1 MOL1        0.0497
     47  H9         -2.1308   16.3300   -4.7863 H         1 MOL1        0.0497
     48  H10        -2.5056   13.8241   -4.6131 H         1 MOL1        0.0529
     49  H11        -0.7430   13.4539   -5.3879 H         1 MOL1        0.0529
     50  H12        -1.7002   15.0320   -8.7495 H         1 MOL1        0.0529
     51  H13        -0.2800   14.1496   -7.7232 H         1 MOL1        0.0529
     52  H14         0.1173   16.6709   -7.9590 H         1 MOL1        0.0497
     53  H15        -1.6448   17.0421   -7.1908 H         1 MOL1        0.0497
     54  H16        -3.5301   12.6211   -6.4257 H         1 MOL1        0.0549
     55  H17        -1.8131   12.2237   -7.2249 H         1 MOL1        0.0549
     56  H19        -2.8849   13.8324   -9.3195 H         1 MOL1        0.0680
     57  H20        -3.4749   11.7687  -10.3871 H         1 MOL1        0.0624
     58  H21        -2.2549   11.1930   -8.9842 H         1 MOL1        0.0624
     59  H22        -3.5484    7.8382   -6.0088 H         1 MOL1        0.0910
     60  H23        -3.8721    6.4756   -4.1254 H         1 MOL1        0.0908
     61  H24        -7.5650    8.7321   -6.0519 H         1 MOL1        0.0929
     62  H25        -9.7312    9.4498   -4.4319 H         1 MOL1        0.0553
     63  H26       -10.0246    8.8693   -2.5915 H         1 MOL1        0.0553
     64  H27        -7.5948   10.3442   -4.0117 H         1 MOL1        0.0547
     65  H28        -7.1413    9.1328   -2.5673 H         1 MOL1        0.0547
     66  H29       -10.5487   10.4348   -2.3165 H         1 MOL1        0.0529
     67  H30        -9.7885   11.8011   -3.4839 H         1 MOL1        0.0529
     68  H31       -10.2651   11.9165   -0.2698 H         1 MOL1        0.0497
     69  H32       -11.3258   12.8012   -1.6601 H         1 MOL1        0.0497
     70  H35        -7.0420   13.9838   -1.1573 H         1 MOL1        0.0497
     71  H36        -7.7745   12.5992    0.0150 H         1 MOL1        0.0497
     72  H37        -7.4594   12.4814   -3.2210 H         1 MOL1        0.0529
     73  H38        -6.3404   11.6217   -1.8748 H         1 MOL1        0.0529
     74  H39        -7.4863    7.8081   -9.1818 H         1 MOL1        0.0628
     75  H40        -8.2799    8.9946   -7.8457 H         1 MOL1        0.0628
     76  H41        -6.9428    8.8781  -11.4009 H         1 MOL1        0.0601
     77  H42        -7.8698   10.5230  -11.8948 H         1 MOL1        0.0601
     78  H43        -6.4274   11.9414  -10.4685 H         1 MOL1        0.0516
     79  H44        -5.2558   10.6983  -11.4260 H         1 MOL1        0.0516
     80  H45       -11.0140   11.4133   -9.5426 H         1 MOL1        0.0588
     81  H46       -12.0133    9.7992   -9.1413 H         1 MOL1        0.0588
     82  H47       -10.5205   10.3162   -7.9994 H         1 MOL1        0.0588
     83  H          -9.2595   14.0938   -2.4520 H         1 MOL1        0.0735
     84  H          -2.9459   14.9137   -6.7059 H         1 MOL1        0.1922
     85  H          -8.4049   10.5163   -1.2236 H         1 MOL1        0.1921
     86  H          -5.0535   13.3860   -9.3034 H         1 MOL1        0.3291
@<TRIPOS>BOND
     1      1      2 1 
     2      1      6 1 
     3      2      3 1 
     4      3      4 1 
     5      4      5 1 
     6      4      7 1 
     7      5      6 1 
     8      7      8 1 
     9      8      9 1 
    10      8     44 1 
    11      9     10 1 
    12     10     11 ar
    13     10     14 ar
    14     11     12 ar
    15     11     37 1 
    16     12     13 ar
    17     12     34 1 
    18     13     14 ar
    19     13     15 1 
    20     15     16 ar
    21     15     20 ar
    22     16     17 ar
    23     17     18 ar
    24     18     19 ar
    25     18     30 1 
    26     19     20 ar
    27     19     21 1 
    28     21     22 1 
    29     22     23 1 
    30     23     24 1 
    31     24     25 1 
    32     24     29 1 
    33     25     26 1 
    34     26     27 1 
    35     27     28 1 
    36     27     42 1 
    37     28     29 1 
    38     30     31 1 
    39     30     32 1 
    40     30     33 1 
    41     34     35 1 
    42     35     36 1 
    43     35     38 1 
    44     36     37 1 
    45     38     39 2 
    46     38     40 2 
    47     38     41 1 
    48     43      1 1 
    49      1     45 1 
    50      2     46 1 
    51      2     47 1 
    52      3     48 1 
    53      3     49 1 
    54      5     50 1 
    55      5     51 1 
    56      6     52 1 
    57      6     53 1 
    58      7     54 1 
    59      7     55 1 
    60      8     56 1 
    61      9     57 1 
    62      9     58 1 
    63     16     59 1 
    64     17     60 1 
    65     20     61 1 
    66     22     62 1 
    67     22     63 1 
    68     23     64 1 
    69     23     65 1 
    70     25     66 1 
    71     25     67 1 
    72     26     68 1 
    73     26     69 1 
    74     28     70 1 
    75     28     71 1 
    76     29     72 1 
    77     29     73 1 
    78     34     74 1 
    79     34     75 1 
    80     36     76 1 
    81     36     77 1 
    82     37     78 1 
    83     37     79 1 
    84     41     80 1 
    85     41     81 1 
    86     41     82 1 
    87     44     86 1 
    88     83     27 1 
    89     84      4 1 
    90     85     24 1 
@<TRIPOS>SUBSTRUCTURE
     1 MOL1         1 MOLECULE          1 A
