lig_23485
     RDKit          3D

 63 66  0  0  0  0  0  0  0  0999 V2000
   41.3800   12.9200   13.7800 C   0  0  0  0  0  0  0  0  0  0  0  0
   42.1900   13.5700   14.8700 C   0  0  0  0  0  0  0  0  0  0  0  0
   42.5100   14.9200   14.7400 C   0  0  0  0  0  0  0  0  0  0  0  0
   42.0700   15.7000   13.7300 O   0  0  0  0  0  0  0  0  0  0  0  0
   40.7200   16.1400   13.8800 C   0  0  0  0  0  0  0  0  0  0  0  0
   40.3200   17.0600   12.7300 C   0  0  0  0  0  0  0  0  0  0  0  0
   41.1700   17.3100   11.8500 O   0  0  0  0  0  0  0  0  0  0  0  0
   39.1400   17.4800   12.7300 O   0  0  0  0  0  0  0  0  0  0  0  0
   43.3700   15.3200   15.7700 C   0  0  0  0  0  0  0  0  0  0  0  0
   44.0500   16.6100   16.0400 C   0  0  0  0  0  0  0  0  0  0  0  0
   43.8800   17.5600   15.2400 O   0  0  0  0  0  0  0  0  0  0  0  0
   44.7800   16.7200   17.0500 O   0  0  0  0  0  0  0  0  0  0  0  0
   43.6400   14.0300   16.9200 S   0  0  0  0  0  0  0  0  0  0  0  0
   42.6200   12.9300   16.0200 C   0  0  0  0  0  0  0  0  0  0  0  0
   42.3600   11.5800   16.4900 C   0  0  0  0  0  0  0  0  0  0  0  0
   43.3800   10.8000   17.0300 C   0  0  0  0  0  0  0  0  0  0  0  0
   43.1300    9.5000   17.4600 C   0  0  0  0  0  0  0  0  0  0  0  0
   41.8500    8.9600   17.3400 C   0  0  0  0  0  0  0  0  0  0  0  0
   40.8100    9.7200   16.7900 C   0  0  0  0  0  0  0  0  0  0  0  0
   39.5000    9.2300   16.6200 N   0  0  0  0  0  0  0  0  0  0  0  0
   39.2600    7.8200   16.3600 C   0  0  0  0  0  0  0  0  0  0  0  0
   37.7400    7.5400   16.3200 C   0  0  0  0  0  0  0  0  0  0  0  0
   37.4100    6.0900   15.9100 C   0  0  0  0  0  0  0  0  0  0  0  0
   38.1200    5.7200   14.6700 N   0  0  0  0  0  0  0  0  0  0  0  0
   37.3800    4.7100   13.5000 S   0  0  0  0  0  0  0  0  0  0  0  0
   38.1900    4.8000   12.2800 O   0  0  0  0  0  0  0  0  0  0  0  0
   35.9400    5.0200   13.4600 O   0  0  0  0  0  0  0  0  0  0  0  0
   37.6100    3.0200   14.2100 C   0  0  0  0  0  0  0  0  0  0  0  0
   37.2200    2.0000   13.1600 C   0  0  0  0  0  0  0  0  0  0  0  0
   35.8900    1.5900   13.0400 C   0  0  0  0  0  0  0  0  0  0  0  0
   35.5300    0.6800   12.0400 C   0  0  0  0  0  0  0  0  0  0  0  0
   36.4900    0.1800   11.1700 C   0  0  0  0  0  0  0  0  0  0  0  0
   37.8300    0.5800   11.3000 C   0  0  0  0  0  0  0  0  0  0  0  0
   38.1900    1.4800   12.2900 C   0  0  0  0  0  0  0  0  0  0  0  0
   39.5800    5.9000   14.6900 C   0  0  0  0  0  0  0  0  0  0  0  0
   39.9400    7.3500   15.0500 C   0  0  0  0  0  0  0  0  0  0  0  0
   41.0800   11.0300   16.3900 C   0  0  0  0  0  0  0  0  0  0  0  0
   40.8000   13.6400   13.2200 H   0  0  0  0  0  0  0  0  0  0  0  0
   42.0300   12.4000   13.0800 H   0  0  0  0  0  0  0  0  0  0  0  0
   40.6800   12.1900   14.1900 H   0  0  0  0  0  0  0  0  0  0  0  0
   40.0300   15.3000   13.9000 H   0  0  0  0  0  0  0  0  0  0  0  0
   40.6200   16.6700   14.8300 H   0  0  0  0  0  0  0  0  0  0  0  0
   44.3800   11.2000   17.1300 H   0  0  0  0  0  0  0  0  0  0  0  0
   43.9200    8.9100   17.8900 H   0  0  0  0  0  0  0  0  0  0  0  0
   41.6700    7.9400   17.6700 H   0  0  0  0  0  0  0  0  0  0  0  0
   38.7500    9.9100   16.6200 H   0  0  0  0  0  0  0  0  0  0  0  0
   39.6900    7.2800   17.2000 H   0  0  0  0  0  0  0  0  0  0  0  0
   37.2900    7.7500   17.2900 H   0  0  0  0  0  0  0  0  0  0  0  0
   37.2700    8.2200   15.6100 H   0  0  0  0  0  0  0  0  0  0  0  0
   37.7000    5.3800   16.6900 H   0  0  0  0  0  0  0  0  0  0  0  0
   36.3300    5.9600   15.7800 H   0  0  0  0  0  0  0  0  0  0  0  0
   38.6600    2.9100   14.4700 H   0  0  0  0  0  0  0  0  0  0  0  0
   37.0400    2.9500   15.1400 H   0  0  0  0  0  0  0  0  0  0  0  0
   35.1400    1.9700   13.7200 H   0  0  0  0  0  0  0  0  0  0  0  0
   34.5000    0.3700   11.9500 H   0  0  0  0  0  0  0  0  0  0  0  0
   36.2100   -0.5100   10.3900 H   0  0  0  0  0  0  0  0  0  0  0  0
   38.5700    0.1800   10.6200 H   0  0  0  0  0  0  0  0  0  0  0  0
   39.2300    1.7800   12.4000 H   0  0  0  0  0  0  0  0  0  0  0  0
   39.9800    5.1900   15.4100 H   0  0  0  0  0  0  0  0  0  0  0  0
   39.9900    5.6200   13.7300 H   0  0  0  0  0  0  0  0  0  0  0  0
   39.6400    8.0100   14.2300 H   0  0  0  0  0  0  0  0  0  0  0  0
   41.0200    7.4400   15.1400 H   0  0  0  0  0  0  0  0  0  0  0  0
   40.3000   11.6600   15.9900 H   0  0  0  0  0  0  0  0  0  0  0  0
  1  2  1  0
  1 38  1  0
  1 39  1  0
  1 40  1  0
  2  3  1  0
  2 14  2  0
  3  4  1  0
  3  9  2  0
  4  5  1  0
  5  6  1  0
  5 41  1  0
  5 42  1  0
  6  7  2  0
  6  8  1  0
  9 10  1  0
  9 13  1  0
 10 11  2  0
 10 12  1  0
 13 14  1  0
 14 15  1  0
 15 16  2  0
 15 37  1  0
 16 17  1  0
 16 43  1  0
 17 18  2  0
 17 44  1  0
 18 19  1  0
 18 45  1  0
 19 20  1  0
 19 37  2  0
 20 21  1  0
 20 46  1  0
 21 22  1  0
 21 36  1  0
 21 47  1  0
 22 23  1  0
 22 48  1  0
 22 49  1  0
 23 24  1  0
 23 50  1  0
 23 51  1  0
 24 25  1  0
 24 35  1  0
 25 26  2  0
 25 27  2  0
 25 28  1  0
 28 29  1  0
 28 52  1  0
 28 53  1  0
 29 30  2  0
 29 34  1  0
 30 31  1  0
 30 54  1  0
 31 32  2  0
 31 55  1  0
 32 33  1  0
 32 56  1  0
 33 34  2  0
 33 57  1  0
 34 58  1  0
 35 36  1  0
 35 59  1  0
 35 60  1  0
 36 61  1  0
 36 62  1  0
 37 63  1  0
M  CHG  2   8  -1  12  -1
M  END
$$$$
