lig_p38a_2n
                    3D
 Structure written by MMmdl.
 53 56  0  0  1  0            999 V2000
   34.5500   34.9800   21.1800 C   0  0  0  0  0  0
   34.0400   38.9800   23.7400 C   0  0  0  0  0  0
   34.8000   37.8100   21.4400 C   0  0  0  0  0  0
   35.2500   37.1300   20.2300 C   0  0  0  0  0  0
   34.3100   37.0400   22.5100 C   0  0  0  0  0  0
   34.8500   39.2100   21.6200 C   0  0  0  0  0  0
   35.1700   35.7800   20.1300 C   0  0  0  0  0  0
   34.4800   39.7900   22.7800 N   0  0  0  0  0  0
   34.3300   33.7800   21.0200 O   0  0  0  0  0  0
   34.2100   35.6200   22.3400 N   0  0  0  0  0  0
   33.9300   37.6500   23.6600 N   0  0  0  0  0  0
   33.6700   39.5700   24.9300 N   0  0  0  0  0  0
   35.7000   37.7400   19.4700 H   0  0  0  0  0  0
   35.2200   39.8600   20.8400 H   0  0  0  0  0  0
   33.7900   40.5700   24.9700 H   0  0  0  0  0  0
   33.6800   34.8400   23.4400 C   0  0  0  0  0  0
   33.4600   35.5200   24.3100 H   0  0  0  0  0  0
   32.7300   34.3400   23.1200 H   0  0  0  0  0  0
   34.7000   33.7900   23.8700 C   0  0  0  0  0  0
   34.9100   33.1100   23.0100 H   0  0  0  0  0  0
   35.6400   34.3000   24.1900 H   0  0  0  0  0  0
   34.1300   32.9800   25.0300 C   0  0  0  0  0  0
   34.6200   31.9700   25.0500 H   0  0  0  0  0  0
   34.3400   33.5100   25.9900 H   0  0  0  0  0  0
   32.7400   32.8300   24.8700 O   0  0  0  0  0  0
   32.5800   31.8800   24.8600 H   0  0  0  0  0  0
   31.1100   38.2800   27.4300 C   0  0  0  0  0  0
   31.6700   39.0900   26.2600 C   0  0  0  0  0  0
   33.1500   38.7500   26.0100 C   0  0  0  0  0  0
   33.9900   38.9700   27.2800 C   0  0  0  0  0  0
   33.4200   38.1500   28.4500 C   0  0  0  0  0  0
   31.9500   38.4900   28.7000 O   0  0  0  0  0  0
   31.1100   37.1900   27.1600 H   0  0  0  0  0  0
   30.0500   38.5600   27.6200 H   0  0  0  0  0  0
   31.5800   40.1800   26.4800 H   0  0  0  0  0  0
   31.0700   38.9000   25.3300 H   0  0  0  0  0  0
   33.2400   37.6900   25.6800 H   0  0  0  0  0  0
   35.0500   38.6800   27.0900 H   0  0  0  0  0  0
   33.9800   40.0500   27.5400 H   0  0  0  0  0  0
   33.5200   37.0600   28.2300 H   0  0  0  0  0  0
   34.0200   38.3500   29.3800 H   0  0  0  0  0  0
   35.6600   35.1800   19.0100 O   0  0  0  0  0  0
   37.2600   38.0600   16.4500 C   0  0  0  0  0  0
   35.9200   37.6700   16.3200 C   0  0  0  0  0  0
   35.3800   36.7000   17.1800 C   0  0  0  0  0  0
   36.1900   36.1200   18.1700 C   0  0  0  0  0  0
   37.5300   36.5000   18.3000 C   0  0  0  0  0  0
   38.0700   37.4800   17.4400 C   0  0  0  0  0  0
   37.7700   38.9800   15.6300 F   0  0  0  0  0  0
   35.2800   38.1300   15.5400 H   0  0  0  0  0  0
   34.3200   36.4000   17.0800 H   0  0  0  0  0  0
   38.2900   35.9500   19.2500 F   0  0  0  0  0  0
   39.1200   37.7800   17.5500 H   0  0  0  0  0  0
  1  7  1  0  0  0
  1  9  2  0  0  0
  1 10  1  0  0  0
  2  8  1  0  0  0
  2 11  2  0  0  0
  2 12  1  0  0  0
  3  4  1  0  0  0
  3  5  2  0  0  0
  3  6  1  0  0  0
  4  7  2  0  0  0
  4 13  1  0  0  0
  5 10  1  0  0  0
  5 11  1  0  0  0
  6  8  2  0  0  0
  6 14  1  0  0  0
  7 42  1  0  0  0
 10 16  1  0  0  0
 12 15  1  0  0  0
 12 29  1  0  0  0
 16 17  1  0  0  0
 16 18  1  0  0  0
 16 19  1  0  0  0
 19 20  1  0  0  0
 19 21  1  0  0  0
 19 22  1  0  0  0
 22 23  1  0  0  0
 22 24  1  0  0  0
 22 25  1  0  0  0
 25 26  1  0  0  0
 27 28  1  0  0  0
 27 32  1  0  0  0
 27 33  1  0  0  0
 27 34  1  0  0  0
 28 29  1  0  0  0
 28 35  1  0  0  0
 28 36  1  0  0  0
 29 30  1  0  0  0
 29 37  1  0  0  0
 30 31  1  0  0  0
 30 38  1  0  0  0
 30 39  1  0  0  0
 31 32  1  0  0  0
 31 40  1  0  0  0
 31 41  1  0  0  0
 42 46  1  0  0  0
 43 44  1  0  0  0
 43 48  2  0  0  0
 43 49  1  0  0  0
 44 45  2  0  0  0
 44 50  1  0  0  0
 45 46  1  0  0  0
 45 51  1  0  0  0
 46 47  2  0  0  0
 47 48  1  0  0  0
 47 52  1  0  0  0
 48 53  1  0  0  0
M  END
> <s_m_entry_id>
15

> <s_m_entry_name>
lig_p38a_2n.1

> <s_pdb_PDB_TITLE>
MX MODEL

> <i_pdb_PDB_Model>
1

> <r_pdb_PDB_CRYST1_a>
181.54

> <r_pdb_PDB_CRYST1_b>
173.7

> <r_pdb_PDB_CRYST1_c>
276.72

> <r_pdb_PDB_CRYST1_alpha>
90

> <r_pdb_PDB_CRYST1_beta>
90

> <r_pdb_PDB_CRYST1_gamma>
90

> <s_pdb_PDB_CRYST1_Space_Group>
P 1

> <i_pdb_PDB_CRYST1_z>
1

> <s_pdb_PDB_format_version>
3.0

> <s_m_Source_Path>
/users/home/dhahn3/projects/PLBenchmarks/PLBenchmarks/data/2019-12-09_p38/03_docked

> <s_m_Source_File>
lig_p38a_2n.pdb

> <i_m_Source_File_Index>
1

$$$$
