19
 OpenBabel02152110423D
Structure written by MMmdl.
 45 49  0  0  1  0  0  0  0  0999 V2000
   91.5919   48.3113  266.7137 C   0  0  0  0  0  0  0  0  0  0  0  0
   91.9737   49.5382  267.2740 C   0  0  0  0  0  0  0  0  0  0  0  0
   93.2784   49.7908  267.6730 C   0  0  0  0  0  0  0  0  0  0  0  0
   94.2680   48.7772  267.5133 C   0  0  0  0  0  0  0  0  0  0  0  0
   93.8795   47.5270  266.9201 C   0  0  0  0  0  0  0  0  0  0  0  0
   92.5376   47.3212  266.5200 C   0  0  0  0  0  0  0  0  0  0  0  0
   93.5872   51.0945  268.3284 C   0  0  0  0  0  0  0  0  0  0  0  0
   92.9105   51.4581  269.4749 C   0  0  0  0  0  0  0  0  0  0  0  0
   93.2075   52.6695  270.0688 C   0  0  0  0  0  0  0  0  0  0  0  0
   94.1599   53.5455  269.4884 C   0  0  0  0  0  0  0  0  0  0  0  0
   94.8806   53.1831  268.3564 C   0  0  0  0  0  0  0  0  0  0  0  0
   94.5635   51.9339  267.7910 C   0  0  0  0  0  0  0  0  0  0  0  0
   94.7950   46.5293  266.7603 N   0  0  0  0  0  0  0  0  0  0  0  0
   96.0527   46.7456  267.1808 C   0  0  0  0  0  0  0  0  0  0  0  0
   96.4462   47.9586  267.7463 C   0  0  0  0  0  0  0  0  0  0  0  0
   95.5547   48.9614  267.9316 N   0  0  0  0  0  0  0  0  0  0  0  0
   90.2589   48.1474  266.3192 N   0  0  0  0  0  0  0  0  0  0  0  0
   94.1772   54.7621  270.3164 C   0  0  0  0  0  0  0  0  0  0  0  0
   93.3120   54.5077  271.3434 C   0  0  0  0  0  0  0  0  0  0  0  0
   92.7370   53.2548  271.2326 N   0  0  0  0  0  0  0  0  0  0  0  0
   91.8268   52.6667  272.1752 C   0  0  0  0  0  0  0  0  0  0  0  0
   89.6772   47.3563  265.3181 C   0  0  0  0  0  0  0  0  0  0  0  0
   90.3332   47.0353  264.1264 C   0  0  0  0  0  0  0  0  0  0  0  0
   89.7129   46.1911  263.1996 C   0  0  0  0  0  0  0  0  0  0  0  0
   88.4539   45.6752  263.4709 C   0  0  0  0  0  0  0  0  0  0  0  0
   87.7916   45.9887  264.6598 C   0  0  0  0  0  0  0  0  0  0  0  0
   88.4119   46.8267  265.5812 C   0  0  0  0  0  0  0  0  0  0  0  0
   91.2132   50.2928  267.4221 H   0  0  0  0  0  0  0  0  0  0  0  0
   92.2566   46.3915  266.0369 H   0  0  0  0  0  0  0  0  0  0  0  0
   92.1423   50.7879  269.9234 H   0  0  0  0  0  0  0  0  0  0  0  0
   95.6232   53.8155  267.9172 H   0  0  0  0  0  0  0  0  0  0  0  0
   95.0955   51.6431  266.8918 H   0  0  0  0  0  0  0  0  0  0  0  0
   96.7693   45.9460  267.0194 H   0  0  0  0  0  0  0  0  0  0  0  0
   97.4666   48.1445  268.0428 H   0  0  0  0  0  0  0  0  0  0  0  0
   89.5994   48.7349  266.8131 H   0  0  0  0  0  0  0  0  0  0  0  0
   94.7896   55.6124  270.1980 H   0  0  0  0  0  0  0  0  0  0  0  0
   93.0519   55.1114  272.1894 H   0  0  0  0  0  0  0  0  0  0  0  0
   90.8903   52.4251  271.6725 H   0  0  0  0  0  0  0  0  0  0  0  0
   91.6273   53.3426  273.0207 H   0  0  0  0  0  0  0  0  0  0  0  0
   92.2598   51.7480  272.5656 H   0  0  0  0  0  0  0  0  0  0  0  0
   91.3238   47.4127  263.9170 H   0  0  0  0  0  0  0  0  0  0  0  0
   90.1981   45.9412  262.2667 H   0  0  0  0  0  0  0  0  0  0  0  0
   87.9450   45.0518  262.7518 H   0  0  0  0  0  0  0  0  0  0  0  0
   86.8041   45.5972  264.8462 H   0  0  0  0  0  0  0  0  0  0  0  0
   87.8892   47.0596  266.4896 H   0  0  0  0  0  0  0  0  0  0  0  0
  1  2  2  0  0  0  0
  1  6  1  0  0  0  0
  1 17  1  0  0  0  0
  2  3  1  0  0  0  0
  2 28  1  0  0  0  0
  3  4  2  0  0  0  0
  3  7  1  0  0  0  0
  4  5  1  0  0  0  0
  4 16  1  0  0  0  0
  5  6  2  0  0  0  0
  5 13  1  0  0  0  0
  6 29  1  0  0  0  0
  7  8  2  0  0  0  0
  7 12  1  0  0  0  0
  8  9  1  0  0  0  0
  8 30  1  0  0  0  0
  9 10  2  0  0  0  0
  9 20  1  0  0  0  0
 10 11  1  0  0  0  0
 10 18  1  0  0  0  0
 11 12  2  0  0  0  0
 11 31  1  0  0  0  0
 12 32  1  0  0  0  0
 13 14  2  0  0  0  0
 14 15  1  0  0  0  0
 14 33  1  0  0  0  0
 15 16  2  0  0  0  0
 15 34  1  0  0  0  0
 17 22  1  0  0  0  0
 17 35  1  0  0  0  0
 18 19  2  0  0  0  0
 18 36  1  0  0  0  0
 19 20  1  0  0  0  0
 19 37  1  0  0  0  0
 20 21  1  0  0  0  0
 21 38  1  0  0  0  0
 21 39  1  0  0  0  0
 21 40  1  0  0  0  0
 22 23  1  0  0  0  0
 22 27  2  0  0  0  0
 23 24  2  0  0  0  0
 23 41  1  0  0  0  0
 24 25  1  0  0  0  0
 24 42  1  0  0  0  0
 25 26  2  0  0  0  0
 25 43  1  0  0  0  0
 26 27  1  0  0  0  0
 26 44  1  0  0  0  0
 27 45  1  0  0  0  0
M  END
>  <ID>
19

>  <IC50[uM]>
2.919

$$$$
