@<TRIPOS>MOLECULE
20
 47 50 0 0 0
SMALL
GASTEIGER
****
Structure written by MMmdl.
@<TRIPOS>ATOM
      1 C          92.5739   47.3336  266.4565 C.ar    1  LIG1       -0.0130
      2 C          91.6324   48.3172  266.6741 C.ar    1  LIG1        0.0341
      3 C          91.9632   49.5168  267.2998 C.ar    1  LIG1       -0.0307
      4 C          93.2765   49.7975  267.6776 C.ar    1  LIG1        0.0114
      5 C          93.8958   47.5362  266.9051 C.ar    1  LIG1        0.0915
      6 C          94.2730   48.7873  267.5121 C.ar    1  LIG1        0.0969
      7 N          95.5665   48.9603  267.9405 N.ar    1  LIG1       -0.2513
      8 C          96.4572   47.9542  267.7463 C.ar    1  LIG1        0.0464
      9 C          96.0617   46.7355  267.2061 C.ar    1  LIG1        0.0464
     10 N          94.8014   46.5336  266.7720 N.ar    1  LIG1       -0.2519
     11 N          90.2859   48.1283  266.3232 N.pl3   1  LIG1       -0.3118
     12 C          89.7235   47.3483  265.2931 C.ar    1  LIG1        0.0748
     13 C          90.4123   47.1279  264.0929 C.ar    1  LIG1        0.0505
     14 N          89.9113   46.4423  263.0351 N.ar    1  LIG1       -0.2613
     15 C          88.6625   45.9485  263.1520 C.ar    1  LIG1        0.0295
     16 C          87.8836   46.0962  264.3010 C.ar    1  LIG1       -0.0169
     17 C          88.4186   46.7903  265.3979 C.ar    1  LIG1        0.1118
     18 S          87.4853   46.8968  266.9278 S.O2    1  LIG1       -0.0040
     19 O          86.1266   46.3735  266.6676 O.2     1  LIG1       -0.1696
     20 O          87.6689   48.2339  267.4731 O.2     1  LIG1       -0.1696
     21 C          88.3809   45.6744  268.0584 C.3     1  LIG1        0.0597
     22 C          93.5881   51.1129  268.3403 C.ar    1  LIG1       -0.0123
     23 C          92.8836   51.4776  269.4978 C.ar    1  LIG1       -0.0537
     24 C          93.2031   52.6955  270.1335 C.ar    1  LIG1       -0.0577
     25 C          94.1885   53.5265  269.6279 C.ar    1  LIG1       -0.0199
     26 C          94.8277   53.1962  268.4343 C.ar    1  LIG1        0.1207
     27 C          94.5514   51.9702  267.8248 C.ar    1  LIG1       -0.0122
     28 O          95.7310   53.9715  267.7910 O.3     1  LIG1       -0.4951
     29 C          96.0567   55.2652  268.3379 C.3     1  LIG1        0.0788
     30 H          92.2595   46.3832  266.0442 H       1  LIG1        0.0658
     31 H          91.2173   50.2889  267.4385 H       1  LIG1        0.0643
     32 H          97.4708   48.1510  268.0435 H       1  LIG1        0.0845
     33 H          96.7711   45.9434  267.0164 H       1  LIG1        0.0845
     34 H          89.5459   48.5927  266.8588 H       1  LIG1        0.1522
     35 H          91.4056   47.5266  263.9863 H       1  LIG1        0.0849
     36 H          88.2721   45.3859  262.3253 H       1  LIG1        0.0830
     37 H          86.8893   45.6433  264.3947 H       1  LIG1        0.0652
     38 H          87.8667   45.6399  269.0059 H       1  LIG1        0.0468
     39 H          89.4103   46.0058  268.1533 H       1  LIG1        0.0468
     40 H          88.3460   44.7025  267.5724 H       1  LIG1        0.0468
     41 H          92.1602   50.8128  269.9492 H       1  LIG1        0.0624
     42 H          92.6820   52.9469  271.0560 H       1  LIG1        0.0619
     43 H          94.3579   54.4739  270.1171 H       1  LIG1        0.0654
     44 H          95.0346   51.7174  266.8952 H       1  LIG1        0.0660
     45 H          96.7832   55.7693  267.6972 H       1  LIG1        0.0660
     46 H          96.5109   55.1557  269.3242 H       1  LIG1        0.0660
     47 H          95.1871   55.9195  268.4266 H       1  LIG1        0.0660
@<TRIPOS>BOND
     1     1     2   ar
     2     1     5   ar
     3     1    30    1
     4     2     3   ar
     5     2    11    1
     6     3     4   ar
     7     3    31    1
     8     4     6   ar
     9     4    22    1
    10     5     6   ar
    11     5    10   ar
    12     6     7   ar
    13     7     8   ar
    14     8     9   ar
    15     8    32    1
    16     9    10   ar
    17     9    33    1
    18    11    12    1
    19    11    34    1
    20    12    13   ar
    21    12    17   ar
    22    13    14   ar
    23    13    35    1
    24    14    15   ar
    25    15    16   ar
    26    15    36    1
    27    16    17   ar
    28    16    37    1
    29    17    18    1
    30    18    19    2
    31    18    20    2
    32    18    21    1
    33    21    38    1
    34    21    39    1
    35    21    40    1
    36    22    23   ar
    37    22    27   ar
    38    23    24   ar
    39    23    41    1
    40    24    25   ar
    41    24    42    1
    42    25    26   ar
    43    25    43    1
    44    26    27   ar
    45    26    28    1
    46    27    44    1
    47    28    29    1
    48    29    45    1
    49    29    46    1
    50    29    47    1
