20
 OpenBabel02152110423D
Structure written by MMmdl.
 47 50  0  0  1  0  0  0  0  0999 V2000
   92.5739   47.3336  266.4565 C   0  0  0  0  0  0  0  0  0  0  0  0
   91.6324   48.3172  266.6741 C   0  0  0  0  0  0  0  0  0  0  0  0
   91.9632   49.5168  267.2998 C   0  0  0  0  0  0  0  0  0  0  0  0
   93.2765   49.7975  267.6776 C   0  0  0  0  0  0  0  0  0  0  0  0
   93.8958   47.5362  266.9051 C   0  0  0  0  0  0  0  0  0  0  0  0
   94.2730   48.7873  267.5121 C   0  0  0  0  0  0  0  0  0  0  0  0
   95.5665   48.9603  267.9405 N   0  0  0  0  0  0  0  0  0  0  0  0
   96.4572   47.9542  267.7463 C   0  0  0  0  0  0  0  0  0  0  0  0
   96.0617   46.7355  267.2061 C   0  0  0  0  0  0  0  0  0  0  0  0
   94.8014   46.5336  266.7720 N   0  0  0  0  0  0  0  0  0  0  0  0
   90.2859   48.1283  266.3232 N   0  0  0  0  0  0  0  0  0  0  0  0
   89.7235   47.3483  265.2931 C   0  0  0  0  0  0  0  0  0  0  0  0
   90.4123   47.1279  264.0929 C   0  0  0  0  0  0  0  0  0  0  0  0
   89.9113   46.4423  263.0351 N   0  0  0  0  0  0  0  0  0  0  0  0
   88.6625   45.9485  263.1520 C   0  0  0  0  0  0  0  0  0  0  0  0
   87.8836   46.0962  264.3010 C   0  0  0  0  0  0  0  0  0  0  0  0
   88.4186   46.7903  265.3979 C   0  0  0  0  0  0  0  0  0  0  0  0
   87.4853   46.8968  266.9278 S   0  0  0  0  0  0  0  0  0  0  0  0
   86.1266   46.3735  266.6676 O   0  0  0  0  0  0  0  0  0  0  0  0
   87.6689   48.2339  267.4731 O   0  0  0  0  0  0  0  0  0  0  0  0
   88.3809   45.6744  268.0584 C   0  0  0  0  0  0  0  0  0  0  0  0
   93.5881   51.1129  268.3403 C   0  0  0  0  0  0  0  0  0  0  0  0
   92.8836   51.4776  269.4978 C   0  0  0  0  0  0  0  0  0  0  0  0
   93.2031   52.6955  270.1335 C   0  0  0  0  0  0  0  0  0  0  0  0
   94.1885   53.5265  269.6279 C   0  0  0  0  0  0  0  0  0  0  0  0
   94.8277   53.1962  268.4343 C   0  0  0  0  0  0  0  0  0  0  0  0
   94.5514   51.9702  267.8248 C   0  0  0  0  0  0  0  0  0  0  0  0
   95.7310   53.9715  267.7910 O   0  0  0  0  0  0  0  0  0  0  0  0
   96.0567   55.2652  268.3379 C   0  0  0  0  0  0  0  0  0  0  0  0
   92.2595   46.3832  266.0442 H   0  0  0  0  0  0  0  0  0  0  0  0
   91.2173   50.2889  267.4385 H   0  0  0  0  0  0  0  0  0  0  0  0
   97.4708   48.1510  268.0435 H   0  0  0  0  0  0  0  0  0  0  0  0
   96.7711   45.9434  267.0164 H   0  0  0  0  0  0  0  0  0  0  0  0
   89.5459   48.5927  266.8588 H   0  0  0  0  0  0  0  0  0  0  0  0
   91.4056   47.5266  263.9863 H   0  0  0  0  0  0  0  0  0  0  0  0
   88.2721   45.3859  262.3253 H   0  0  0  0  0  0  0  0  0  0  0  0
   86.8893   45.6433  264.3947 H   0  0  0  0  0  0  0  0  0  0  0  0
   87.8667   45.6399  269.0059 H   0  0  0  0  0  0  0  0  0  0  0  0
   89.4103   46.0058  268.1533 H   0  0  0  0  0  0  0  0  0  0  0  0
   88.3460   44.7025  267.5724 H   0  0  0  0  0  0  0  0  0  0  0  0
   92.1602   50.8128  269.9492 H   0  0  0  0  0  0  0  0  0  0  0  0
   92.6820   52.9469  271.0560 H   0  0  0  0  0  0  0  0  0  0  0  0
   94.3579   54.4739  270.1171 H   0  0  0  0  0  0  0  0  0  0  0  0
   95.0346   51.7174  266.8952 H   0  0  0  0  0  0  0  0  0  0  0  0
   96.7832   55.7693  267.6972 H   0  0  0  0  0  0  0  0  0  0  0  0
   96.5109   55.1557  269.3242 H   0  0  0  0  0  0  0  0  0  0  0  0
   95.1871   55.9195  268.4266 H   0  0  0  0  0  0  0  0  0  0  0  0
  1  2  2  0  0  0  0
  1  5  1  0  0  0  0
  1 30  1  0  0  0  0
  2  3  1  0  0  0  0
  2 11  1  0  0  0  0
  3  4  2  0  0  0  0
  3 31  1  0  0  0  0
  4  6  1  0  0  0  0
  4 22  1  0  0  0  0
  5  6  1  0  0  0  0
  5 10  2  0  0  0  0
  6  7  2  0  0  0  0
  7  8  1  0  0  0  0
  8  9  2  0  0  0  0
  8 32  1  0  0  0  0
  9 10  1  0  0  0  0
  9 33  1  0  0  0  0
 11 12  1  0  0  0  0
 11 34  1  0  0  0  0
 12 13  2  0  0  0  0
 12 17  1  0  0  0  0
 13 14  1  0  0  0  0
 13 35  1  0  0  0  0
 14 15  2  0  0  0  0
 15 16  1  0  0  0  0
 15 36  1  0  0  0  0
 16 17  2  0  0  0  0
 16 37  1  0  0  0  0
 17 18  1  0  0  0  0
 18 19  2  0  0  0  0
 18 20  2  0  0  0  0
 18 21  1  0  0  0  0
 21 38  1  0  0  0  0
 21 39  1  0  0  0  0
 21 40  1  0  0  0  0
 22 23  2  0  0  0  0
 22 27  1  0  0  0  0
 23 24  1  0  0  0  0
 23 41  1  0  0  0  0
 24 25  2  0  0  0  0
 24 42  1  0  0  0  0
 25 26  1  0  0  0  0
 25 43  1  0  0  0  0
 26 27  2  0  0  0  0
 26 28  1  0  0  0  0
 27 44  1  0  0  0  0
 28 29  1  0  0  0  0
 29 45  1  0  0  0  0
 29 46  1  0  0  0  0
 29 47  1  0  0  0  0
M  END
>  <ID>
20

>  <IC50[uM]>
0.572

$$$$
