@<TRIPOS>MOLECULE
23
 44 48 0 0 0
SMALL
GASTEIGER
****
Structure written by MMmdl.
@<TRIPOS>ATOM
      1 N          90.2666   48.1240  266.3159 N.pl3   1  LIG1       -0.3132
      2 C          91.6053   48.3302  266.6785 C.ar    1  LIG1        0.0341
      3 C          91.9655   49.5283  267.2824 C.ar    1  LIG1       -0.0307
      4 C          93.2798   49.7880  267.6955 C.ar    1  LIG1        0.0114
      5 C          94.2675   48.7692  267.5233 C.ar    1  LIG1        0.0969
      6 C          93.8901   47.5291  266.9246 C.ar    1  LIG1        0.0915
      7 C          92.5604   47.3362  266.4923 C.ar    1  LIG1       -0.0130
      8 C          93.5816   51.0865  268.3410 C.ar    1  LIG1       -0.0138
      9 C          94.5539   51.9289  267.7999 C.ar    1  LIG1       -0.0533
     10 C          94.8419   53.1599  268.3769 C.ar    1  LIG1       -0.0520
     11 C          94.1340   53.5695  269.5200 C.ar    1  LIG1       -0.0001
     12 C          93.1794   52.6828  270.0955 C.ar    1  LIG1        0.0494
     13 C          92.8885   51.4503  269.4975 C.ar    1  LIG1       -0.0298
     14 C          94.1379   54.7246  270.3295 C.ar    1  LIG1       -0.0365
     15 C          93.3231   54.5023  271.3969 C.ar    1  LIG1        0.0054
     16 N          92.7270   53.2828  271.2572 N.ar    1  LIG1       -0.3497
     17 C          91.8143   52.7068  272.2360 C.3     1  LIG1        0.0119
     18 N          94.7937   46.5216  266.7799 N.ar    1  LIG1       -0.2519
     19 C          96.0626   46.7418  267.2021 C.ar    1  LIG1        0.0464
     20 C          96.4462   47.9561  267.7601 C.ar    1  LIG1        0.0464
     21 N          95.5561   48.9613  267.9464 N.ar    1  LIG1       -0.2513
     22 C          89.7286   47.3554  265.2768 C.ar    1  LIG1        0.0497
     23 C          90.4324   47.1276  264.0879 C.ar    1  LIG1        0.0487
     24 N          89.9168   46.4329  263.0385 N.ar    1  LIG1       -0.2614
     25 C          88.6627   45.9292  263.1762 C.ar    1  LIG1        0.0277
     26 C          87.8956   46.1024  264.3286 C.ar    1  LIG1       -0.0418
     27 C          88.4329   46.8391  265.3862 C.ar    1  LIG1       -0.0376
     28 H          89.5840   48.5534  266.9215 H       1  LIG1        0.1522
     29 H          91.2103   50.2872  267.4331 H       1  LIG1        0.0643
     30 H          92.2824   46.3904  266.0527 H       1  LIG1        0.0658
     31 H          95.0948   51.6267  266.9152 H       1  LIG1        0.0624
     32 H          95.5936   53.8009  267.9420 H       1  LIG1        0.0624
     33 H          92.1679   50.7900  269.9332 H       1  LIG1        0.0644
     34 H          94.7495   55.6177  270.1967 H       1  LIG1        0.0639
     35 H          93.1003   55.1251  272.2562 H       1  LIG1        0.0809
     36 H          90.8685   52.4626  271.7679 H       1  LIG1        0.0456
     37 H          91.6486   53.4244  273.0386 H       1  LIG1        0.0456
     38 H          92.2600   51.8084  272.6499 H       1  LIG1        0.0456
     39 H          96.7703   45.9439  267.0454 H       1  LIG1        0.0845
     40 H          97.4696   48.1484  268.0483 H       1  LIG1        0.0845
     41 H          91.4251   47.5215  263.9542 H       1  LIG1        0.0848
     42 H          88.2698   45.3722  262.3401 H       1  LIG1        0.0829
     43 H          86.9082   45.6692  264.4068 H       1  LIG1        0.0633
     44 H          87.8553   46.9873  266.2876 H       1  LIG1        0.0637
@<TRIPOS>BOND
     1     1     2    1
     2     1    22    1
     3     1    28    1
     4     2     3   ar
     5     2     7   ar
     6     3     4   ar
     7     3    29    1
     8     4     5   ar
     9     4     8    1
    10     5    21   ar
    11     5     6   ar
    12     6     7   ar
    13     6    18   ar
    14     7    30    1
    15     8     9   ar
    16     8    13   ar
    17     9    10   ar
    18     9    31    1
    19    10    11   ar
    20    10    32    1
    21    11    12   ar
    22    11    14   ar
    23    12    13   ar
    24    12    16   ar
    25    13    33    1
    26    14    15   ar
    27    14    34    1
    28    15    16   ar
    29    15    35    1
    30    16    17    1
    31    17    36    1
    32    17    37    1
    33    17    38    1
    34    18    19   ar
    35    19    20   ar
    36    19    39    1
    37    20    21   ar
    38    20    40    1
    39    22    23   ar
    40    22    27   ar
    41    23    24   ar
    42    23    41    1
    43    24    25   ar
    44    25    26   ar
    45    25    42    1
    46    26    27   ar
    47    26    43    1
    48    27    44    1
