24
 OpenBabel02152110423D
Structure written by MMmdl.
 46 50  0  0  1  0  0  0  0  0999 V2000
   94.7934   46.5310  266.7559 N   0  0  0  0  0  0  0  0  0  0  0  0
   95.5582   48.9639  267.9334 N   0  0  0  0  0  0  0  0  0  0  0  0
   96.4466   47.9569  267.7437 C   0  0  0  0  0  0  0  0  0  0  0  0
   96.0618   46.7455  267.1837 C   0  0  0  0  0  0  0  0  0  0  0  0
   94.2697   48.7791  267.5052 C   0  0  0  0  0  0  0  0  0  0  0  0
   93.8901   47.5407  266.8989 C   0  0  0  0  0  0  0  0  0  0  0  0
   92.5600   47.3451  266.4593 C   0  0  0  0  0  0  0  0  0  0  0  0
   91.6063   48.3396  266.6555 C   0  0  0  0  0  0  0  0  0  0  0  0
   91.9699   49.5311  267.2767 C   0  0  0  0  0  0  0  0  0  0  0  0
   93.2841   49.7958  267.6804 C   0  0  0  0  0  0  0  0  0  0  0  0
   93.5907   51.0925  268.3264 C   0  0  0  0  0  0  0  0  0  0  0  0
   90.2614   48.1538  266.3036 N   0  0  0  0  0  0  0  0  0  0  0  0
   94.5668   51.9472  267.7977 C   0  0  0  0  0  0  0  0  0  0  0  0
   94.8663   53.1821  268.3739 C   0  0  0  0  0  0  0  0  0  0  0  0
   92.8923   51.4433  269.4840 C   0  0  0  0  0  0  0  0  0  0  0  0
   93.2012   52.6678  270.0771 C   0  0  0  0  0  0  0  0  0  0  0  0
   94.1512   53.5677  269.5161 C   0  0  0  0  0  0  0  0  0  0  0  0
   94.1492   54.7274  270.3470 C   0  0  0  0  0  0  0  0  0  0  0  0
   93.2774   54.4889  271.3839 C   0  0  0  0  0  0  0  0  0  0  0  0
   92.7265   53.2453  271.2434 N   0  0  0  0  0  0  0  0  0  0  0  0
   91.8100   52.6331  272.1856 C   0  0  0  0  0  0  0  0  0  0  0  0
   89.6457   47.3771  265.3001 C   0  0  0  0  0  0  0  0  0  0  0  0
   90.3572   47.0310  264.1425 C   0  0  0  0  0  0  0  0  0  0  0  0
   89.7478   46.3118  263.1147 C   0  0  0  0  0  0  0  0  0  0  0  0
   88.4149   45.9293  263.2275 C   0  0  0  0  0  0  0  0  0  0  0  0
   87.6884   46.2695  264.3653 C   0  0  0  0  0  0  0  0  0  0  0  0
   88.2903   46.9920  265.4020 C   0  0  0  0  0  0  0  0  0  0  0  0
   87.4679   47.3024  266.5683 C   0  0  0  0  0  0  0  0  0  0  0  0
   86.8158   47.5543  267.4897 N   0  0  0  0  0  0  0  0  0  0  0  0
   97.4675   48.1440  268.0431 H   0  0  0  0  0  0  0  0  0  0  0  0
   96.7682   45.9462  267.0194 H   0  0  0  0  0  0  0  0  0  0  0  0
   92.2766   46.3948  266.0294 H   0  0  0  0  0  0  0  0  0  0  0  0
   91.2125   50.2847  267.4445 H   0  0  0  0  0  0  0  0  0  0  0  0
   89.6053   48.6279  266.9087 H   0  0  0  0  0  0  0  0  0  0  0  0
   95.0978   51.6559  266.8992 H   0  0  0  0  0  0  0  0  0  0  0  0
   95.6195   53.8279  267.9323 H   0  0  0  0  0  0  0  0  0  0  0  0
   92.1459   50.7815  269.9121 H   0  0  0  0  0  0  0  0  0  0  0  0
   94.7662   55.6216  270.2424 H   0  0  0  0  0  0  0  0  0  0  0  0
   93.0084   55.0959  272.2349 H   0  0  0  0  0  0  0  0  0  0  0  0
   91.6210   53.3091  273.0208 H   0  0  0  0  0  0  0  0  0  0  0  0
   92.2505   51.7171  272.5757 H   0  0  0  0  0  0  0  0  0  0  0  0
   90.8739   52.3970  271.6835 H   0  0  0  0  0  0  0  0  0  0  0  0
   91.3873   47.3281  264.0266 H   0  0  0  0  0  0  0  0  0  0  0  0
   90.3077   46.0365  262.2339 H   0  0  0  0  0  0  0  0  0  0  0  0
   87.9440   45.3507  262.4475 H   0  0  0  0  0  0  0  0  0  0  0  0
   86.6579   45.9419  264.4385 H   0  0  0  0  0  0  0  0  0  0  0  0
  1  4  1  0  0  0  0
  1  6  2  0  0  0  0
  2  3  1  0  0  0  0
  2  5  2  0  0  0  0
  3  4  2  0  0  0  0
  3 30  1  0  0  0  0
  4 31  1  0  0  0  0
  5  6  1  0  0  0  0
  5 10  1  0  0  0  0
  6  7  1  0  0  0  0
  7  8  2  0  0  0  0
  7 32  1  0  0  0  0
  8  9  1  0  0  0  0
  8 12  1  0  0  0  0
  9 10  2  0  0  0  0
  9 33  1  0  0  0  0
 10 11  1  0  0  0  0
 11 13  2  0  0  0  0
 11 15  1  0  0  0  0
 12 22  1  0  0  0  0
 12 34  1  0  0  0  0
 13 14  1  0  0  0  0
 13 35  1  0  0  0  0
 14 17  2  0  0  0  0
 14 36  1  0  0  0  0
 15 16  2  0  0  0  0
 15 37  1  0  0  0  0
 16 17  1  0  0  0  0
 16 20  1  0  0  0  0
 17 18  1  0  0  0  0
 18 19  2  0  0  0  0
 18 38  1  0  0  0  0
 19 20  1  0  0  0  0
 19 39  1  0  0  0  0
 20 21  1  0  0  0  0
 21 40  1  0  0  0  0
 21 41  1  0  0  0  0
 21 42  1  0  0  0  0
 22 23  2  0  0  0  0
 22 27  1  0  0  0  0
 23 24  1  0  0  0  0
 23 43  1  0  0  0  0
 24 25  2  0  0  0  0
 24 44  1  0  0  0  0
 25 26  1  0  0  0  0
 25 45  1  0  0  0  0
 26 27  2  0  0  0  0
 26 46  1  0  0  0  0
 27 28  1  0  0  0  0
 28 29  3  0  0  0  0
M  END
>  <ID>
24

>  <IC50[uM]>
0.315

$$$$
