@<TRIPOS>MOLECULE
26
 49 53 0 0 0
SMALL
GASTEIGER
****
Structure written by MMmdl.
@<TRIPOS>ATOM
      1 C          92.5604   47.3400  266.4645 C.ar    1  LIG1       -0.0130
      2 C          91.6033   48.3329  266.6623 C.ar    1  LIG1        0.0341
      3 C          91.9663   49.5284  267.2832 C.ar    1  LIG1       -0.0307
      4 C          93.2809   49.8044  267.6816 C.ar    1  LIG1        0.0114
      5 C          93.8899   47.5440  266.9028 C.ar    1  LIG1        0.0915
      6 C          94.2681   48.7863  267.5062 C.ar    1  LIG1        0.0969
      7 N          95.5594   48.9658  267.9286 N.ar    1  LIG1       -0.2513
      8 C          96.4477   47.9579  267.7347 C.ar    1  LIG1        0.0464
      9 C          96.0603   46.7470  267.1752 C.ar    1  LIG1        0.0464
     10 N          94.7960   46.5358  266.7511 N.ar    1  LIG1       -0.2519
     11 C          93.5929   51.1046  268.3258 C.ar    1  LIG1       -0.0138
     12 N          90.2555   48.1502  266.3103 N.pl3   1  LIG1       -0.3138
     13 C          94.5796   51.9524  267.7970 C.ar    1  LIG1       -0.0533
     14 C          94.8788   53.1903  268.3744 C.ar    1  LIG1       -0.0520
     15 C          92.8914   51.4478  269.4799 C.ar    1  LIG1       -0.0298
     16 C          93.2168   52.6679  270.0678 C.ar    1  LIG1        0.0494
     17 C          94.1655   53.5690  269.5124 C.ar    1  LIG1       -0.0001
     18 C          94.1737   54.7307  270.3540 C.ar    1  LIG1       -0.0365
     19 C          93.2736   54.4902  271.3621 C.ar    1  LIG1        0.0054
     20 N          92.7449   53.2407  271.2292 N.ar    1  LIG1       -0.3497
     21 C          91.8199   52.6411  272.1840 C.3     1  LIG1        0.0119
     22 C          89.6226   47.3651  265.3242 C.ar    1  LIG1        0.0435
     23 C          88.2891   46.8965  265.4752 C.ar    1  LIG1        0.0576
     24 C          87.7104   46.1731  264.4151 C.ar    1  LIG1       -0.0478
     25 C          88.4109   45.9091  263.2455 C.ar    1  LIG1       -0.0609
     26 C          89.7142   46.3643  263.1048 C.ar    1  LIG1       -0.0600
     27 C          90.3116   47.0903  264.1333 C.ar    1  LIG1       -0.0398
     28 C          87.4576   47.1549  266.7210 C.2     1  LIG1        0.2433
     29 O          87.7195   48.0491  267.5179 O.2     1  LIG1       -0.2704
     30 N          86.4083   46.3619  266.9362 N.am    1  LIG1       -0.3253
     31 H          92.2719   46.3892  266.0366 H       1  LIG1        0.0658
     32 H          91.2102   50.2834  267.4508 H       1  LIG1        0.0643
     33 H          97.4642   48.1404  268.0445 H       1  LIG1        0.0845
     34 H          96.7697   45.9473  267.0116 H       1  LIG1        0.0845
     35 H          89.5894   48.6322  266.9039 H       1  LIG1        0.1522
     36 H          95.1034   51.6528  266.8935 H       1  LIG1        0.0624
     37 H          95.6282   53.8303  267.9247 H       1  LIG1        0.0624
     38 H          92.1307   50.7998  269.9141 H       1  LIG1        0.0644
     39 H          94.7826   55.6082  270.2355 H       1  LIG1        0.0639
     40 H          92.9910   55.0873  272.2131 H       1  LIG1        0.0809
     41 H          91.6021   53.3023  273.0329 H       1  LIG1        0.0456
     42 H          92.2499   51.7252  272.5857 H       1  LIG1        0.0456
     43 H          90.8831   52.3860  271.6903 H       1  LIG1        0.0456
     44 H          86.6936   45.8078  264.4722 H       1  LIG1        0.0626
     45 H          87.9337   45.3443  262.4572 H       1  LIG1        0.0618
     46 H          90.2509   46.1545  262.1925 H       1  LIG1        0.0618
     47 H          91.3188   47.4451  263.9869 H       1  LIG1        0.0636
     48 H          85.8413   46.4915  267.7584 H       1  LIG1        0.1453
     49 H          86.1993   45.6153  266.2911 H       1  LIG1        0.1453
@<TRIPOS>BOND
     1     1     2   ar
     2     1     5   ar
     3     1    31    1
     4     2     3   ar
     5     2    12    1
     6     3     4   ar
     7     3    32    1
     8     4     6   ar
     9     4    11    1
    10     5     6   ar
    11     5    10   ar
    12     6     7   ar
    13     7     8   ar
    14     8     9   ar
    15     8    33    1
    16     9    10   ar
    17     9    34    1
    18    11    13   ar
    19    11    15   ar
    20    12    22    1
    21    12    35    1
    22    13    14   ar
    23    13    36    1
    24    14    17   ar
    25    14    37    1
    26    15    16   ar
    27    15    38    1
    28    16    17   ar
    29    16    20   ar
    30    17    18   ar
    31    18    19   ar
    32    18    39    1
    33    19    20   ar
    34    19    40    1
    35    20    21    1
    36    21    41    1
    37    21    42    1
    38    21    43    1
    39    22    23   ar
    40    22    27   ar
    41    23    24   ar
    42    23    28    1
    43    24    25   ar
    44    24    44    1
    45    25    26   ar
    46    25    45    1
    47    26    27   ar
    48    26    46    1
    49    27    47    1
    50    28    29    2
    51    28    30   am
    52    30    48    1
    53    30    49    1
