26
 OpenBabel02152110423D
Structure written by MMmdl.
 49 53  0  0  1  0  0  0  0  0999 V2000
   92.5604   47.3400  266.4645 C   0  0  0  0  0  0  0  0  0  0  0  0
   91.6033   48.3329  266.6623 C   0  0  0  0  0  0  0  0  0  0  0  0
   91.9663   49.5284  267.2832 C   0  0  0  0  0  0  0  0  0  0  0  0
   93.2809   49.8044  267.6816 C   0  0  0  0  0  0  0  0  0  0  0  0
   93.8899   47.5440  266.9028 C   0  0  0  0  0  0  0  0  0  0  0  0
   94.2681   48.7863  267.5062 C   0  0  0  0  0  0  0  0  0  0  0  0
   95.5594   48.9658  267.9286 N   0  0  0  0  0  0  0  0  0  0  0  0
   96.4477   47.9579  267.7347 C   0  0  0  0  0  0  0  0  0  0  0  0
   96.0603   46.7470  267.1752 C   0  0  0  0  0  0  0  0  0  0  0  0
   94.7960   46.5358  266.7511 N   0  0  0  0  0  0  0  0  0  0  0  0
   93.5929   51.1046  268.3258 C   0  0  0  0  0  0  0  0  0  0  0  0
   90.2555   48.1502  266.3103 N   0  0  0  0  0  0  0  0  0  0  0  0
   94.5796   51.9524  267.7970 C   0  0  0  0  0  0  0  0  0  0  0  0
   94.8788   53.1903  268.3744 C   0  0  0  0  0  0  0  0  0  0  0  0
   92.8914   51.4478  269.4799 C   0  0  0  0  0  0  0  0  0  0  0  0
   93.2168   52.6679  270.0678 C   0  0  0  0  0  0  0  0  0  0  0  0
   94.1655   53.5690  269.5124 C   0  0  0  0  0  0  0  0  0  0  0  0
   94.1737   54.7307  270.3540 C   0  0  0  0  0  0  0  0  0  0  0  0
   93.2736   54.4902  271.3621 C   0  0  0  0  0  0  0  0  0  0  0  0
   92.7449   53.2407  271.2292 N   0  0  0  0  0  0  0  0  0  0  0  0
   91.8199   52.6411  272.1840 C   0  0  0  0  0  0  0  0  0  0  0  0
   89.6226   47.3651  265.3242 C   0  0  0  0  0  0  0  0  0  0  0  0
   88.2891   46.8965  265.4752 C   0  0  0  0  0  0  0  0  0  0  0  0
   87.7104   46.1731  264.4151 C   0  0  0  0  0  0  0  0  0  0  0  0
   88.4109   45.9091  263.2455 C   0  0  0  0  0  0  0  0  0  0  0  0
   89.7142   46.3643  263.1048 C   0  0  0  0  0  0  0  0  0  0  0  0
   90.3116   47.0903  264.1333 C   0  0  0  0  0  0  0  0  0  0  0  0
   87.4576   47.1549  266.7210 C   0  0  0  0  0  0  0  0  0  0  0  0
   87.7195   48.0491  267.5179 O   0  0  0  0  0  0  0  0  0  0  0  0
   86.4083   46.3619  266.9362 N   0  0  0  0  0  0  0  0  0  0  0  0
   92.2719   46.3892  266.0366 H   0  0  0  0  0  0  0  0  0  0  0  0
   91.2102   50.2834  267.4508 H   0  0  0  0  0  0  0  0  0  0  0  0
   97.4642   48.1404  268.0445 H   0  0  0  0  0  0  0  0  0  0  0  0
   96.7697   45.9473  267.0116 H   0  0  0  0  0  0  0  0  0  0  0  0
   89.5894   48.6322  266.9039 H   0  0  0  0  0  0  0  0  0  0  0  0
   95.1034   51.6528  266.8935 H   0  0  0  0  0  0  0  0  0  0  0  0
   95.6282   53.8303  267.9247 H   0  0  0  0  0  0  0  0  0  0  0  0
   92.1307   50.7998  269.9141 H   0  0  0  0  0  0  0  0  0  0  0  0
   94.7826   55.6082  270.2355 H   0  0  0  0  0  0  0  0  0  0  0  0
   92.9910   55.0873  272.2131 H   0  0  0  0  0  0  0  0  0  0  0  0
   91.6021   53.3023  273.0329 H   0  0  0  0  0  0  0  0  0  0  0  0
   92.2499   51.7252  272.5857 H   0  0  0  0  0  0  0  0  0  0  0  0
   90.8831   52.3860  271.6903 H   0  0  0  0  0  0  0  0  0  0  0  0
   86.6936   45.8078  264.4722 H   0  0  0  0  0  0  0  0  0  0  0  0
   87.9337   45.3443  262.4572 H   0  0  0  0  0  0  0  0  0  0  0  0
   90.2509   46.1545  262.1925 H   0  0  0  0  0  0  0  0  0  0  0  0
   91.3188   47.4451  263.9869 H   0  0  0  0  0  0  0  0  0  0  0  0
   85.8413   46.4915  267.7584 H   0  0  0  0  0  0  0  0  0  0  0  0
   86.1993   45.6153  266.2911 H   0  0  0  0  0  0  0  0  0  0  0  0
  1  2  2  0  0  0  0
  1  5  1  0  0  0  0
  1 31  1  0  0  0  0
  2  3  1  0  0  0  0
  2 12  1  0  0  0  0
  3  4  2  0  0  0  0
  3 32  1  0  0  0  0
  4  6  1  0  0  0  0
  4 11  1  0  0  0  0
  5  6  1  0  0  0  0
  5 10  2  0  0  0  0
  6  7  2  0  0  0  0
  7  8  1  0  0  0  0
  8  9  2  0  0  0  0
  8 33  1  0  0  0  0
  9 10  1  0  0  0  0
  9 34  1  0  0  0  0
 11 13  2  0  0  0  0
 11 15  1  0  0  0  0
 12 22  1  0  0  0  0
 12 35  1  0  0  0  0
 13 14  1  0  0  0  0
 13 36  1  0  0  0  0
 14 17  2  0  0  0  0
 14 37  1  0  0  0  0
 15 16  2  0  0  0  0
 15 38  1  0  0  0  0
 16 17  1  0  0  0  0
 16 20  1  0  0  0  0
 17 18  1  0  0  0  0
 18 19  2  0  0  0  0
 18 39  1  0  0  0  0
 19 20  1  0  0  0  0
 19 40  1  0  0  0  0
 20 21  1  0  0  0  0
 21 41  1  0  0  0  0
 21 42  1  0  0  0  0
 21 43  1  0  0  0  0
 22 23  2  0  0  0  0
 22 27  1  0  0  0  0
 23 24  1  0  0  0  0
 23 28  1  0  0  0  0
 24 25  2  0  0  0  0
 24 44  1  0  0  0  0
 25 26  1  0  0  0  0
 25 45  1  0  0  0  0
 26 27  2  0  0  0  0
 26 46  1  0  0  0  0
 27 47  1  0  0  0  0
 28 29  2  0  0  0  0
 28 30  1  0  0  0  0
 30 48  1  0  0  0  0
 30 49  1  0  0  0  0
M  END
>  <ID>
26

>  <IC50[uM]>
0.19

$$$$
