@<TRIPOS>MOLECULE
29
 51 55 0 0 0
SMALL
GASTEIGER
****
Structure written by MMmdl.
@<TRIPOS>ATOM
      1 N          90.2429   48.1499  266.3259 N.pl3   1  LIG1       -0.3129
      2 C          91.5915   48.3463  266.6440 C.ar    1  LIG1        0.0341
      3 C          91.9574   49.5395  267.2559 C.ar    1  LIG1       -0.0307
      4 C          93.2671   49.7858  267.6847 C.ar    1  LIG1        0.0114
      5 C          94.2480   48.7609  267.5164 C.ar    1  LIG1        0.0969
      6 C          93.8706   47.5246  266.9023 C.ar    1  LIG1        0.0915
      7 C          92.5420   47.3500  266.4404 C.ar    1  LIG1       -0.0130
      8 C          93.5621   51.0725  268.3476 C.ar    1  LIG1       -0.0138
      9 C          94.5377   51.9183  267.8084 C.ar    1  LIG1       -0.0533
     10 C          94.8189   53.1557  268.3917 C.ar    1  LIG1       -0.0520
     11 C          94.1002   53.5562  269.5191 C.ar    1  LIG1       -0.0001
     12 C          93.1598   52.6544  270.0934 C.ar    1  LIG1        0.0494
     13 C          92.8672   51.4224  269.5078 C.ar    1  LIG1       -0.0298
     14 C          94.1039   54.7259  270.3250 C.ar    1  LIG1       -0.0365
     15 C          93.3196   54.4659  271.4136 C.ar    1  LIG1        0.0054
     16 N          92.6997   53.2477  271.2657 N.ar    1  LIG1       -0.3497
     17 C          91.7777   52.6682  272.2304 C.3     1  LIG1        0.0119
     18 N          94.7782   46.5125  266.7757 N.ar    1  LIG1       -0.2519
     19 C          96.0421   46.7292  267.2110 C.ar    1  LIG1        0.0464
     20 C          96.4257   47.9449  267.7634 C.ar    1  LIG1        0.0464
     21 N          95.5326   48.9464  267.9520 N.ar    1  LIG1       -0.2513
     22 C          89.6492   47.3982  265.3040 C.ar    1  LIG1        0.0564
     23 C          88.4421   46.7054  265.5047 C.ar    1  LIG1        0.1089
     24 C          87.8175   46.0683  264.4281 C.ar    1  LIG1       -0.0351
     25 C          88.3808   46.1261  263.1569 C.ar    1  LIG1       -0.0598
     26 C          89.5836   46.7997  262.9557 C.ar    1  LIG1       -0.0599
     27 C          90.2205   47.4179  264.0292 C.ar    1  LIG1       -0.0387
     28 S          87.7197   46.6216  267.1428 S.O2    1  LIG1       -0.0041
     29 C          88.7306   45.3939  268.1466 C.3     1  LIG1        0.0597
     30 O          87.9054   47.9440  267.7429 O.2     1  LIG1       -0.1696
     31 O          86.3737   46.0712  266.9700 O.2     1  LIG1       -0.1696
     32 H          89.5840   48.5333  266.9901 H       1  LIG1        0.1522
     33 H          91.2097   50.3066  267.4086 H       1  LIG1        0.0643
     34 H          92.2450   46.4152  265.9897 H       1  LIG1        0.0658
     35 H          95.0846   51.6072  266.9221 H       1  LIG1        0.0624
     36 H          95.5694   53.7889  267.9491 H       1  LIG1        0.0624
     37 H          92.1532   50.7460  269.9468 H       1  LIG1        0.0644
     38 H          94.7104   55.6146  270.1889 H       1  LIG1        0.0639
     39 H          93.1476   55.0537  272.3082 H       1  LIG1        0.0809
     40 H          92.2250   51.7647  272.6332 H       1  LIG1        0.0456
     41 H          90.8371   52.4249  271.7437 H       1  LIG1        0.0456
     42 H          91.6020   53.3826  273.0374 H       1  LIG1        0.0456
     43 H          96.7605   45.9327  267.0668 H       1  LIG1        0.0845
     44 H          97.4448   48.1466  268.0543 H       1  LIG1        0.0845
     45 H          86.8897   45.5275  264.5487 H       1  LIG1        0.0637
     46 H          87.8747   45.6506  262.3311 H       1  LIG1        0.0618
     47 H          90.0062   46.8648  261.9658 H       1  LIG1        0.0618
     48 H          91.1366   47.9651  263.8709 H       1  LIG1        0.0637
     49 H          88.2859   45.3378  269.1377 H       1  LIG1        0.0468
     50 H          89.7578   45.7535  268.2181 H       1  LIG1        0.0468
     51 H          88.7027   44.4150  267.6714 H       1  LIG1        0.0468
@<TRIPOS>BOND
     1     1     2    1
     2     1    22    1
     3     1    32    1
     4     2     3   ar
     5     2     7   ar
     6     3     4   ar
     7     3    33    1
     8     4     5   ar
     9     4     8    1
    10     5    21   ar
    11     5     6   ar
    12     6     7   ar
    13     6    18   ar
    14     7    34    1
    15     8     9   ar
    16     8    13   ar
    17     9    10   ar
    18     9    35    1
    19    10    11   ar
    20    10    36    1
    21    11    12   ar
    22    11    14   ar
    23    12    13   ar
    24    12    16   ar
    25    13    37    1
    26    14    15   ar
    27    14    38    1
    28    15    16   ar
    29    15    39    1
    30    16    17    1
    31    17    40    1
    32    17    41    1
    33    17    42    1
    34    18    19   ar
    35    19    20   ar
    36    19    43    1
    37    20    21   ar
    38    20    44    1
    39    22    23   ar
    40    22    27   ar
    41    23    24   ar
    42    23    28    1
    43    24    25   ar
    44    24    45    1
    45    25    26   ar
    46    25    46    1
    47    26    27   ar
    48    26    47    1
    49    27    48    1
    50    28    29    1
    51    28    30    2
    52    28    31    2
    53    29    49    1
    54    29    50    1
    55    29    51    1
