29
 OpenBabel02152110423D
Structure written by MMmdl.
 51 55  0  0  1  0  0  0  0  0999 V2000
   90.2429   48.1499  266.3259 N   0  0  0  0  0  0  0  0  0  0  0  0
   91.5915   48.3463  266.6440 C   0  0  0  0  0  0  0  0  0  0  0  0
   91.9574   49.5395  267.2559 C   0  0  0  0  0  0  0  0  0  0  0  0
   93.2671   49.7858  267.6847 C   0  0  0  0  0  0  0  0  0  0  0  0
   94.2480   48.7609  267.5164 C   0  0  0  0  0  0  0  0  0  0  0  0
   93.8706   47.5246  266.9023 C   0  0  0  0  0  0  0  0  0  0  0  0
   92.5420   47.3500  266.4404 C   0  0  0  0  0  0  0  0  0  0  0  0
   93.5621   51.0725  268.3476 C   0  0  0  0  0  0  0  0  0  0  0  0
   94.5377   51.9183  267.8084 C   0  0  0  0  0  0  0  0  0  0  0  0
   94.8189   53.1557  268.3917 C   0  0  0  0  0  0  0  0  0  0  0  0
   94.1002   53.5562  269.5191 C   0  0  0  0  0  0  0  0  0  0  0  0
   93.1598   52.6544  270.0934 C   0  0  0  0  0  0  0  0  0  0  0  0
   92.8672   51.4224  269.5078 C   0  0  0  0  0  0  0  0  0  0  0  0
   94.1039   54.7259  270.3250 C   0  0  0  0  0  0  0  0  0  0  0  0
   93.3196   54.4659  271.4136 C   0  0  0  0  0  0  0  0  0  0  0  0
   92.6997   53.2477  271.2657 N   0  0  0  0  0  0  0  0  0  0  0  0
   91.7777   52.6682  272.2304 C   0  0  0  0  0  0  0  0  0  0  0  0
   94.7782   46.5125  266.7757 N   0  0  0  0  0  0  0  0  0  0  0  0
   96.0421   46.7292  267.2110 C   0  0  0  0  0  0  0  0  0  0  0  0
   96.4257   47.9449  267.7634 C   0  0  0  0  0  0  0  0  0  0  0  0
   95.5326   48.9464  267.9520 N   0  0  0  0  0  0  0  0  0  0  0  0
   89.6492   47.3982  265.3040 C   0  0  0  0  0  0  0  0  0  0  0  0
   88.4421   46.7054  265.5047 C   0  0  0  0  0  0  0  0  0  0  0  0
   87.8175   46.0683  264.4281 C   0  0  0  0  0  0  0  0  0  0  0  0
   88.3808   46.1261  263.1569 C   0  0  0  0  0  0  0  0  0  0  0  0
   89.5836   46.7997  262.9557 C   0  0  0  0  0  0  0  0  0  0  0  0
   90.2205   47.4179  264.0292 C   0  0  0  0  0  0  0  0  0  0  0  0
   87.7197   46.6216  267.1428 S   0  0  0  0  0  0  0  0  0  0  0  0
   88.7306   45.3939  268.1466 C   0  0  0  0  0  0  0  0  0  0  0  0
   87.9054   47.9440  267.7429 O   0  0  0  0  0  0  0  0  0  0  0  0
   86.3737   46.0712  266.9700 O   0  0  0  0  0  0  0  0  0  0  0  0
   89.5840   48.5333  266.9901 H   0  0  0  0  0  0  0  0  0  0  0  0
   91.2097   50.3066  267.4086 H   0  0  0  0  0  0  0  0  0  0  0  0
   92.2450   46.4152  265.9897 H   0  0  0  0  0  0  0  0  0  0  0  0
   95.0846   51.6072  266.9221 H   0  0  0  0  0  0  0  0  0  0  0  0
   95.5694   53.7889  267.9491 H   0  0  0  0  0  0  0  0  0  0  0  0
   92.1532   50.7460  269.9468 H   0  0  0  0  0  0  0  0  0  0  0  0
   94.7104   55.6146  270.1889 H   0  0  0  0  0  0  0  0  0  0  0  0
   93.1476   55.0537  272.3082 H   0  0  0  0  0  0  0  0  0  0  0  0
   92.2250   51.7647  272.6332 H   0  0  0  0  0  0  0  0  0  0  0  0
   90.8371   52.4249  271.7437 H   0  0  0  0  0  0  0  0  0  0  0  0
   91.6020   53.3826  273.0374 H   0  0  0  0  0  0  0  0  0  0  0  0
   96.7605   45.9327  267.0668 H   0  0  0  0  0  0  0  0  0  0  0  0
   97.4448   48.1466  268.0543 H   0  0  0  0  0  0  0  0  0  0  0  0
   86.8897   45.5275  264.5487 H   0  0  0  0  0  0  0  0  0  0  0  0
   87.8747   45.6506  262.3311 H   0  0  0  0  0  0  0  0  0  0  0  0
   90.0062   46.8648  261.9658 H   0  0  0  0  0  0  0  0  0  0  0  0
   91.1366   47.9651  263.8709 H   0  0  0  0  0  0  0  0  0  0  0  0
   88.2859   45.3378  269.1377 H   0  0  0  0  0  0  0  0  0  0  0  0
   89.7578   45.7535  268.2181 H   0  0  0  0  0  0  0  0  0  0  0  0
   88.7027   44.4150  267.6714 H   0  0  0  0  0  0  0  0  0  0  0  0
  1  2  1  0  0  0  0
  1 22  1  0  0  0  0
  1 32  1  0  0  0  0
  2  3  1  0  0  0  0
  2  7  2  0  0  0  0
  3  4  2  0  0  0  0
  3 33  1  0  0  0  0
  4  5  1  0  0  0  0
  4  8  1  0  0  0  0
  5 21  2  0  0  0  0
  5  6  1  0  0  0  0
  6  7  1  0  0  0  0
  6 18  2  0  0  0  0
  7 34  1  0  0  0  0
  8  9  2  0  0  0  0
  8 13  1  0  0  0  0
  9 10  1  0  0  0  0
  9 35  1  0  0  0  0
 10 11  2  0  0  0  0
 10 36  1  0  0  0  0
 11 12  1  0  0  0  0
 11 14  1  0  0  0  0
 12 13  2  0  0  0  0
 12 16  1  0  0  0  0
 13 37  1  0  0  0  0
 14 15  2  0  0  0  0
 14 38  1  0  0  0  0
 15 16  1  0  0  0  0
 15 39  1  0  0  0  0
 16 17  1  0  0  0  0
 17 40  1  0  0  0  0
 17 41  1  0  0  0  0
 17 42  1  0  0  0  0
 18 19  1  0  0  0  0
 19 20  2  0  0  0  0
 19 43  1  0  0  0  0
 20 21  1  0  0  0  0
 20 44  1  0  0  0  0
 22 23  2  0  0  0  0
 22 27  1  0  0  0  0
 23 24  1  0  0  0  0
 23 28  1  0  0  0  0
 24 25  2  0  0  0  0
 24 45  1  0  0  0  0
 25 26  1  0  0  0  0
 25 46  1  0  0  0  0
 26 27  2  0  0  0  0
 26 47  1  0  0  0  0
 27 48  1  0  0  0  0
 28 29  1  0  0  0  0
 28 30  2  0  0  0  0
 28 31  2  0  0  0  0
 29 49  1  0  0  0  0
 29 50  1  0  0  0  0
 29 51  1  0  0  0  0
M  END
>  <ID>
29

>  <IC50[uM]>
0.085

$$$$
