@<TRIPOS>MOLECULE
30
 48 52 0 0 0
SMALL
GASTEIGER
****
Structure written by MMmdl.
@<TRIPOS>ATOM
      1 N          90.3246   48.2158  265.9106 N.pl3   1  LIG1       -0.3103
      2 C          91.6410   48.3483  266.3682 C.ar    1  LIG1        0.0342
      3 C          91.9415   49.5214  267.0589 C.ar    1  LIG1       -0.0307
      4 C          93.1916   49.7577  267.6267 C.ar    1  LIG1        0.0114
      5 C          94.2090   48.7633  267.4940 C.ar    1  LIG1        0.0969
      6 C          93.8920   47.5406  266.8142 C.ar    1  LIG1        0.0915
      7 C          92.6020   47.3493  266.2505 C.ar    1  LIG1       -0.0130
      8 C          93.3887   51.0078  268.4028 C.ar    1  LIG1       -0.0138
      9 C          94.3856   51.9191  268.0632 C.ar    1  LIG1       -0.0533
     10 C          94.5800   53.0959  268.7844 C.ar    1  LIG1       -0.0520
     11 C          93.7588   53.3624  269.8875 C.ar    1  LIG1       -0.0001
     12 C          92.7502   52.4132  270.2359 C.ar    1  LIG1        0.0494
     13 C          92.5445   51.2472  269.4912 C.ar    1  LIG1       -0.0298
     14 C          93.6590   54.4296  270.8315 C.ar    1  LIG1       -0.0365
     15 C          92.6607   54.0993  271.7192 C.ar    1  LIG1        0.0054
     16 N          92.1109   52.8876  271.3697 N.ar    1  LIG1       -0.3497
     17 N          94.8307   46.5542  266.6953 N.ar    1  LIG1       -0.2519
     18 C          96.0576   46.7723  267.2282 C.ar    1  LIG1        0.0464
     19 C          96.3687   47.9683  267.8707 C.ar    1  LIG1        0.0464
     20 N          95.4525   48.9489  268.0267 N.ar    1  LIG1       -0.2513
     21 C          91.0015   52.2516  272.0349 C.3     1  LIG1        0.0119
     22 C          89.6285   47.2718  265.1312 C.ar    1  LIG1        0.0938
     23 C          90.0658   46.7271  263.9099 C.ar    1  LIG1        0.2364
     24 N          89.2897   45.8581  263.1888 N.ar    1  LIG1       -0.2198
     25 C          88.0679   45.5254  263.6665 C.ar    1  LIG1        0.0315
     26 C          87.5646   46.0381  264.8536 C.ar    1  LIG1       -0.0416
     27 C          88.3537   46.9259  265.5834 C.ar    1  LIG1       -0.0339
     28 O          91.2814   47.0908  263.3524 O.3     1  LIG1       -0.4784
     29 C          91.5717   46.7276  261.9951 C.3     1  LIG1        0.0805
     30 H          89.7054   48.8989  266.3314 H       1  LIG1        0.1523
     31 H          91.1742   50.2745  267.1733 H       1  LIG1        0.0643
     32 H          92.3704   46.4313  265.7346 H       1  LIG1        0.0658
     33 H          95.0268   51.7132  267.2178 H       1  LIG1        0.0624
     34 H          95.3510   53.7912  268.4891 H       1  LIG1        0.0624
     35 H          91.7728   50.5401  269.7642 H       1  LIG1        0.0644
     36 H          94.2567   55.3288  270.8709 H       1  LIG1        0.0639
     37 H          92.2753   54.6395  272.5720 H       1  LIG1        0.0809
     38 H          96.7837   45.9839  267.1326 H       1  LIG1        0.0845
     39 H          97.3426   48.1426  268.2967 H       1  LIG1        0.0845
     40 H          91.2213   51.1967  272.1960 H       1  LIG1        0.0456
     41 H          90.0975   52.3505  271.4345 H       1  LIG1        0.0456
     42 H          90.8589   52.7256  273.0100 H       1  LIG1        0.0456
     43 H          87.4937   44.8108  263.0830 H       1  LIG1        0.0831
     44 H          86.5893   45.7382  265.2184 H       1  LIG1        0.0633
     45 H          87.9673   47.3300  266.5091 H       1  LIG1        0.0638
     46 H          92.5406   47.1233  261.6761 H       1  LIG1        0.0660
     47 H          90.8369   47.1301  261.2988 H       1  LIG1        0.0660
     48 H          91.5927   45.6483  261.8513 H       1  LIG1        0.0660
@<TRIPOS>BOND
     1     1     2    1
     2     1    22    1
     3     1    30    1
     4     2     3   ar
     5     2     7   ar
     6     3     4   ar
     7     3    31    1
     8     4     5   ar
     9     4     8    1
    10     5    20   ar
    11     5     6   ar
    12     6     7   ar
    13     6    17   ar
    14     7    32    1
    15     8     9   ar
    16     8    13   ar
    17     9    10   ar
    18     9    33    1
    19    10    11   ar
    20    10    34    1
    21    11    14   ar
    22    11    12   ar
    23    12    13   ar
    24    12    16   ar
    25    13    35    1
    26    14    15   ar
    27    14    36    1
    28    15    16   ar
    29    15    37    1
    30    16    21    1
    31    17    18   ar
    32    18    19   ar
    33    18    38    1
    34    19    20   ar
    35    19    39    1
    36    21    40    1
    37    21    41    1
    38    21    42    1
    39    22    23   ar
    40    22    27   ar
    41    23    24   ar
    42    23    28    1
    43    24    25   ar
    44    25    26   ar
    45    25    43    1
    46    26    27   ar
    47    26    44    1
    48    27    45    1
    49    28    29    1
    50    29    46    1
    51    29    47    1
    52    29    48    1
