30
 OpenBabel02152110423D
Structure written by MMmdl.
 48 52  0  0  1  0  0  0  0  0999 V2000
   90.3246   48.2158  265.9106 N   0  0  0  0  0  0  0  0  0  0  0  0
   91.6410   48.3483  266.3682 C   0  0  0  0  0  0  0  0  0  0  0  0
   91.9415   49.5214  267.0589 C   0  0  0  0  0  0  0  0  0  0  0  0
   93.1916   49.7577  267.6267 C   0  0  0  0  0  0  0  0  0  0  0  0
   94.2090   48.7633  267.4940 C   0  0  0  0  0  0  0  0  0  0  0  0
   93.8920   47.5406  266.8142 C   0  0  0  0  0  0  0  0  0  0  0  0
   92.6020   47.3493  266.2505 C   0  0  0  0  0  0  0  0  0  0  0  0
   93.3887   51.0078  268.4028 C   0  0  0  0  0  0  0  0  0  0  0  0
   94.3856   51.9191  268.0632 C   0  0  0  0  0  0  0  0  0  0  0  0
   94.5800   53.0959  268.7844 C   0  0  0  0  0  0  0  0  0  0  0  0
   93.7588   53.3624  269.8875 C   0  0  0  0  0  0  0  0  0  0  0  0
   92.7502   52.4132  270.2359 C   0  0  0  0  0  0  0  0  0  0  0  0
   92.5445   51.2472  269.4912 C   0  0  0  0  0  0  0  0  0  0  0  0
   93.6590   54.4296  270.8315 C   0  0  0  0  0  0  0  0  0  0  0  0
   92.6607   54.0993  271.7192 C   0  0  0  0  0  0  0  0  0  0  0  0
   92.1109   52.8876  271.3697 N   0  0  0  0  0  0  0  0  0  0  0  0
   94.8307   46.5542  266.6953 N   0  0  0  0  0  0  0  0  0  0  0  0
   96.0576   46.7723  267.2282 C   0  0  0  0  0  0  0  0  0  0  0  0
   96.3687   47.9683  267.8707 C   0  0  0  0  0  0  0  0  0  0  0  0
   95.4525   48.9489  268.0267 N   0  0  0  0  0  0  0  0  0  0  0  0
   91.0015   52.2516  272.0349 C   0  0  0  0  0  0  0  0  0  0  0  0
   89.6285   47.2718  265.1312 C   0  0  0  0  0  0  0  0  0  0  0  0
   90.0658   46.7271  263.9099 C   0  0  0  0  0  0  0  0  0  0  0  0
   89.2897   45.8581  263.1888 N   0  0  0  0  0  0  0  0  0  0  0  0
   88.0679   45.5254  263.6665 C   0  0  0  0  0  0  0  0  0  0  0  0
   87.5646   46.0381  264.8536 C   0  0  0  0  0  0  0  0  0  0  0  0
   88.3537   46.9259  265.5834 C   0  0  0  0  0  0  0  0  0  0  0  0
   91.2814   47.0908  263.3524 O   0  0  0  0  0  0  0  0  0  0  0  0
   91.5717   46.7276  261.9951 C   0  0  0  0  0  0  0  0  0  0  0  0
   89.7054   48.8989  266.3314 H   0  0  0  0  0  0  0  0  0  0  0  0
   91.1742   50.2745  267.1733 H   0  0  0  0  0  0  0  0  0  0  0  0
   92.3704   46.4313  265.7346 H   0  0  0  0  0  0  0  0  0  0  0  0
   95.0268   51.7132  267.2178 H   0  0  0  0  0  0  0  0  0  0  0  0
   95.3510   53.7912  268.4891 H   0  0  0  0  0  0  0  0  0  0  0  0
   91.7728   50.5401  269.7642 H   0  0  0  0  0  0  0  0  0  0  0  0
   94.2567   55.3288  270.8709 H   0  0  0  0  0  0  0  0  0  0  0  0
   92.2753   54.6395  272.5720 H   0  0  0  0  0  0  0  0  0  0  0  0
   96.7837   45.9839  267.1326 H   0  0  0  0  0  0  0  0  0  0  0  0
   97.3426   48.1426  268.2967 H   0  0  0  0  0  0  0  0  0  0  0  0
   91.2213   51.1967  272.1960 H   0  0  0  0  0  0  0  0  0  0  0  0
   90.0975   52.3505  271.4345 H   0  0  0  0  0  0  0  0  0  0  0  0
   90.8589   52.7256  273.0100 H   0  0  0  0  0  0  0  0  0  0  0  0
   87.4937   44.8108  263.0830 H   0  0  0  0  0  0  0  0  0  0  0  0
   86.5893   45.7382  265.2184 H   0  0  0  0  0  0  0  0  0  0  0  0
   87.9673   47.3300  266.5091 H   0  0  0  0  0  0  0  0  0  0  0  0
   92.5406   47.1233  261.6761 H   0  0  0  0  0  0  0  0  0  0  0  0
   90.8369   47.1301  261.2988 H   0  0  0  0  0  0  0  0  0  0  0  0
   91.5927   45.6483  261.8513 H   0  0  0  0  0  0  0  0  0  0  0  0
  1  2  1  0  0  0  0
  1 22  1  0  0  0  0
  1 30  1  0  0  0  0
  2  3  2  0  0  0  0
  2  7  1  0  0  0  0
  3  4  1  0  0  0  0
  3 31  1  0  0  0  0
  4  5  2  0  0  0  0
  4  8  1  0  0  0  0
  5 20  1  0  0  0  0
  5  6  1  0  0  0  0
  6  7  2  0  0  0  0
  6 17  1  0  0  0  0
  7 32  1  0  0  0  0
  8  9  2  0  0  0  0
  8 13  1  0  0  0  0
  9 10  1  0  0  0  0
  9 33  1  0  0  0  0
 10 11  2  0  0  0  0
 10 34  1  0  0  0  0
 11 14  1  0  0  0  0
 11 12  1  0  0  0  0
 12 13  2  0  0  0  0
 12 16  1  0  0  0  0
 13 35  1  0  0  0  0
 14 15  2  0  0  0  0
 14 36  1  0  0  0  0
 15 16  1  0  0  0  0
 15 37  1  0  0  0  0
 16 21  1  0  0  0  0
 17 18  2  0  0  0  0
 18 19  1  0  0  0  0
 18 38  1  0  0  0  0
 19 20  2  0  0  0  0
 19 39  1  0  0  0  0
 21 40  1  0  0  0  0
 21 41  1  0  0  0  0
 21 42  1  0  0  0  0
 22 23  1  0  0  0  0
 22 27  2  0  0  0  0
 23 24  2  0  0  0  0
 23 28  1  0  0  0  0
 24 25  1  0  0  0  0
 25 26  2  0  0  0  0
 25 43  1  0  0  0  0
 26 27  1  0  0  0  0
 26 44  1  0  0  0  0
 27 45  1  0  0  0  0
 28 29  1  0  0  0  0
 29 46  1  0  0  0  0
 29 47  1  0  0  0  0
 29 48  1  0  0  0  0
M  END
>  <ID>
30

>  <IC50[uM]>
0.181

$$$$
