@<TRIPOS>MOLECULE
31
 48 52 0 0 0
SMALL
GASTEIGER
****
Structure written by MMmdl.
@<TRIPOS>ATOM
      1 N          90.2734   48.1373  266.3119 N.pl3   1  LIG1       -0.3104
      2 C          91.6117   48.3398  266.6726 C.ar    1  LIG1        0.0342
      3 C          91.9712   49.5358  267.2869 C.ar    1  LIG1       -0.0307
      4 C          93.2859   49.8045  267.6861 C.ar    1  LIG1        0.0114
      5 C          92.5671   47.3483  266.4685 C.ar    1  LIG1       -0.0130
      6 C          93.8944   47.5452  266.9039 C.ar    1  LIG1        0.0915
      7 C          94.2720   48.7853  267.5093 C.ar    1  LIG1        0.0969
      8 N          95.5613   48.9672  267.9330 N.ar    1  LIG1       -0.2513
      9 C          96.4474   47.9577  267.7413 C.ar    1  LIG1        0.0464
     10 C          96.0603   46.7471  267.1804 C.ar    1  LIG1        0.0464
     11 N          94.7948   46.5347  266.7539 N.ar    1  LIG1       -0.2519
     12 C          93.5898   51.1081  268.3324 C.ar    1  LIG1       -0.0138
     13 C          94.5658   51.9591  267.8021 C.ar    1  LIG1       -0.0533
     14 C          94.8582   53.1934  268.3840 C.ar    1  LIG1       -0.0520
     15 C          92.8861   51.4597  269.4865 C.ar    1  LIG1       -0.0298
     16 N          92.7260   53.2479  271.2608 N.ar    1  LIG1       -0.3497
     17 C          93.1982   52.6767  270.0937 C.ar    1  LIG1        0.0494
     18 C          94.1524   53.5738  269.5353 C.ar    1  LIG1       -0.0001
     19 C          94.1575   54.7293  270.3755 C.ar    1  LIG1       -0.0365
     20 C          93.3428   54.4594  271.4429 C.ar    1  LIG1        0.0054
     21 C          91.7409   52.6665  272.1542 C.3     1  LIG1        0.0119
     22 C          90.4241   47.1199  264.0974 C.ar    1  LIG1        0.0523
     23 C          89.7187   47.3508  265.2862 C.ar    1  LIG1        0.0919
     24 C          88.4205   46.8190  265.4083 C.ar    1  LIG1        0.1440
     25 C          87.8923   46.0966  264.3222 C.ar    1  LIG1        0.0000
     26 C          88.6643   45.9320  263.1722 C.ar    1  LIG1        0.0311
     27 N          89.9182   46.4295  263.0460 N.ar    1  LIG1       -0.2612
     28 O          87.7289   47.0297  266.5905 O.3     1  LIG1       -0.4932
     29 C          86.6417   46.1641  266.9159 C.3     1  LIG1        0.0789
     30 H          89.5868   48.6125  266.8810 H       1  LIG1        0.1523
     31 H          91.2113   50.2874  267.4491 H       1  LIG1        0.0643
     32 H          92.2845   46.4012  266.0294 H       1  LIG1        0.0658
     33 H          97.4673   48.1422  268.0436 H       1  LIG1        0.0845
     34 H          96.7683   45.9465  267.0190 H       1  LIG1        0.0845
     35 H          95.0959   51.6639  266.9069 H       1  LIG1        0.0624
     36 H          95.6099   53.8355  267.9427 H       1  LIG1        0.0624
     37 H          92.1435   50.7994  269.9124 H       1  LIG1        0.0644
     38 H          94.7478   55.6229  270.2556 H       1  LIG1        0.0639
     39 H          93.1309   55.0547  272.3177 H       1  LIG1        0.0809
     40 H          92.1012   51.7055  272.5204 H       1  LIG1        0.0456
     41 H          90.8126   52.5158  271.6044 H       1  LIG1        0.0456
     42 H          91.5524   53.3252  273.0018 H       1  LIG1        0.0456
     43 H          91.4231   47.5030  263.9698 H       1  LIG1        0.0850
     44 H          86.9039   45.6606  264.3509 H       1  LIG1        0.0670
     45 H          88.2760   45.3830  262.3272 H       1  LIG1        0.0831
     46 H          86.2357   46.4597  267.8831 H       1  LIG1        0.0660
     47 H          86.9586   45.1221  266.9987 H       1  LIG1        0.0660
     48 H          85.8268   46.2288  266.1940 H       1  LIG1        0.0660
@<TRIPOS>BOND
     1     1     2    1
     2     1    23    1
     3     1    30    1
     4     2     3   ar
     5     2     5   ar
     6     3     4   ar
     7     3    31    1
     8     4     7   ar
     9     4    12    1
    10     5     6   ar
    11     5    32    1
    12     6     7   ar
    13     6    11   ar
    14     7     8   ar
    15     8     9   ar
    16     9    10   ar
    17     9    33    1
    18    10    11   ar
    19    10    34    1
    20    12    13   ar
    21    12    15   ar
    22    13    14   ar
    23    13    35    1
    24    14    18   ar
    25    14    36    1
    26    15    17   ar
    27    15    37    1
    28    16    17   ar
    29    16    20   ar
    30    16    21    1
    31    17    18   ar
    32    18    19   ar
    33    19    20   ar
    34    19    38    1
    35    20    39    1
    36    21    40    1
    37    21    41    1
    38    21    42    1
    39    22    23   ar
    40    22    27   ar
    41    22    43    1
    42    23    24   ar
    43    24    25   ar
    44    24    28    1
    45    25    26   ar
    46    25    44    1
    47    26    27   ar
    48    26    45    1
    49    28    29    1
    50    29    46    1
    51    29    47    1
    52    29    48    1
