31
 OpenBabel02152110423D
Structure written by MMmdl.
 48 52  0  0  1  0  0  0  0  0999 V2000
   90.2734   48.1373  266.3119 N   0  0  0  0  0  0  0  0  0  0  0  0
   91.6117   48.3398  266.6726 C   0  0  0  0  0  0  0  0  0  0  0  0
   91.9712   49.5358  267.2869 C   0  0  0  0  0  0  0  0  0  0  0  0
   93.2859   49.8045  267.6861 C   0  0  0  0  0  0  0  0  0  0  0  0
   92.5671   47.3483  266.4685 C   0  0  0  0  0  0  0  0  0  0  0  0
   93.8944   47.5452  266.9039 C   0  0  0  0  0  0  0  0  0  0  0  0
   94.2720   48.7853  267.5093 C   0  0  0  0  0  0  0  0  0  0  0  0
   95.5613   48.9672  267.9330 N   0  0  0  0  0  0  0  0  0  0  0  0
   96.4474   47.9577  267.7413 C   0  0  0  0  0  0  0  0  0  0  0  0
   96.0603   46.7471  267.1804 C   0  0  0  0  0  0  0  0  0  0  0  0
   94.7948   46.5347  266.7539 N   0  0  0  0  0  0  0  0  0  0  0  0
   93.5898   51.1081  268.3324 C   0  0  0  0  0  0  0  0  0  0  0  0
   94.5658   51.9591  267.8021 C   0  0  0  0  0  0  0  0  0  0  0  0
   94.8582   53.1934  268.3840 C   0  0  0  0  0  0  0  0  0  0  0  0
   92.8861   51.4597  269.4865 C   0  0  0  0  0  0  0  0  0  0  0  0
   92.7260   53.2479  271.2608 N   0  0  0  0  0  0  0  0  0  0  0  0
   93.1982   52.6767  270.0937 C   0  0  0  0  0  0  0  0  0  0  0  0
   94.1524   53.5738  269.5353 C   0  0  0  0  0  0  0  0  0  0  0  0
   94.1575   54.7293  270.3755 C   0  0  0  0  0  0  0  0  0  0  0  0
   93.3428   54.4594  271.4429 C   0  0  0  0  0  0  0  0  0  0  0  0
   91.7409   52.6665  272.1542 C   0  0  0  0  0  0  0  0  0  0  0  0
   90.4241   47.1199  264.0974 C   0  0  0  0  0  0  0  0  0  0  0  0
   89.7187   47.3508  265.2862 C   0  0  0  0  0  0  0  0  0  0  0  0
   88.4205   46.8190  265.4083 C   0  0  0  0  0  0  0  0  0  0  0  0
   87.8923   46.0966  264.3222 C   0  0  0  0  0  0  0  0  0  0  0  0
   88.6643   45.9320  263.1722 C   0  0  0  0  0  0  0  0  0  0  0  0
   89.9182   46.4295  263.0460 N   0  0  0  0  0  0  0  0  0  0  0  0
   87.7289   47.0297  266.5905 O   0  0  0  0  0  0  0  0  0  0  0  0
   86.6417   46.1641  266.9159 C   0  0  0  0  0  0  0  0  0  0  0  0
   89.5868   48.6125  266.8810 H   0  0  0  0  0  0  0  0  0  0  0  0
   91.2113   50.2874  267.4491 H   0  0  0  0  0  0  0  0  0  0  0  0
   92.2845   46.4012  266.0294 H   0  0  0  0  0  0  0  0  0  0  0  0
   97.4673   48.1422  268.0436 H   0  0  0  0  0  0  0  0  0  0  0  0
   96.7683   45.9465  267.0190 H   0  0  0  0  0  0  0  0  0  0  0  0
   95.0959   51.6639  266.9069 H   0  0  0  0  0  0  0  0  0  0  0  0
   95.6099   53.8355  267.9427 H   0  0  0  0  0  0  0  0  0  0  0  0
   92.1435   50.7994  269.9124 H   0  0  0  0  0  0  0  0  0  0  0  0
   94.7478   55.6229  270.2556 H   0  0  0  0  0  0  0  0  0  0  0  0
   93.1309   55.0547  272.3177 H   0  0  0  0  0  0  0  0  0  0  0  0
   92.1012   51.7055  272.5204 H   0  0  0  0  0  0  0  0  0  0  0  0
   90.8126   52.5158  271.6044 H   0  0  0  0  0  0  0  0  0  0  0  0
   91.5524   53.3252  273.0018 H   0  0  0  0  0  0  0  0  0  0  0  0
   91.4231   47.5030  263.9698 H   0  0  0  0  0  0  0  0  0  0  0  0
   86.9039   45.6606  264.3509 H   0  0  0  0  0  0  0  0  0  0  0  0
   88.2760   45.3830  262.3272 H   0  0  0  0  0  0  0  0  0  0  0  0
   86.2357   46.4597  267.8831 H   0  0  0  0  0  0  0  0  0  0  0  0
   86.9586   45.1221  266.9987 H   0  0  0  0  0  0  0  0  0  0  0  0
   85.8268   46.2288  266.1940 H   0  0  0  0  0  0  0  0  0  0  0  0
  1  2  1  0  0  0  0
  1 23  1  0  0  0  0
  1 30  1  0  0  0  0
  2  3  2  0  0  0  0
  2  5  1  0  0  0  0
  3  4  1  0  0  0  0
  3 31  1  0  0  0  0
  4  7  2  0  0  0  0
  4 12  1  0  0  0  0
  5  6  2  0  0  0  0
  5 32  1  0  0  0  0
  6  7  1  0  0  0  0
  6 11  1  0  0  0  0
  7  8  1  0  0  0  0
  8  9  2  0  0  0  0
  9 10  1  0  0  0  0
  9 33  1  0  0  0  0
 10 11  2  0  0  0  0
 10 34  1  0  0  0  0
 12 13  2  0  0  0  0
 12 15  1  0  0  0  0
 13 14  1  0  0  0  0
 13 35  1  0  0  0  0
 14 18  2  0  0  0  0
 14 36  1  0  0  0  0
 15 17  2  0  0  0  0
 15 37  1  0  0  0  0
 16 17  1  0  0  0  0
 16 20  1  0  0  0  0
 16 21  1  0  0  0  0
 17 18  1  0  0  0  0
 18 19  1  0  0  0  0
 19 20  2  0  0  0  0
 19 38  1  0  0  0  0
 20 39  1  0  0  0  0
 21 40  1  0  0  0  0
 21 41  1  0  0  0  0
 21 42  1  0  0  0  0
 22 23  2  0  0  0  0
 22 27  1  0  0  0  0
 22 43  1  0  0  0  0
 23 24  1  0  0  0  0
 24 25  2  0  0  0  0
 24 28  1  0  0  0  0
 25 26  1  0  0  0  0
 25 44  1  0  0  0  0
 26 27  2  0  0  0  0
 26 45  1  0  0  0  0
 28 29  1  0  0  0  0
 29 46  1  0  0  0  0
 29 47  1  0  0  0  0
 29 48  1  0  0  0  0
M  END
>  <ID>
31

>  <IC50[uM]>
0.157

$$$$
