@<TRIPOS>MOLECULE
33
 45 49 0 0 0
SMALL
GASTEIGER
****
Structure written by MMmdl.
@<TRIPOS>ATOM
      1 N          90.2783   48.1451  266.3142 N.pl3   1  LIG1       -0.3122
      2 C          91.6169   48.3446  266.6738 C.ar    1  LIG1        0.0341
      3 C          91.9745   49.5378  267.2907 C.ar    1  LIG1       -0.0307
      4 C          93.2869   49.8041  267.6905 C.ar    1  LIG1        0.0114
      5 C          94.2733   48.7861  267.5115 C.ar    1  LIG1        0.0969
      6 C          93.8958   47.5470  266.9048 C.ar    1  LIG1        0.0915
      7 C          92.5700   47.3545  266.4704 C.ar    1  LIG1       -0.0130
      8 C          93.5906   51.1033  268.3373 C.ar    1  LIG1       -0.0138
      9 C          94.5701   51.9485  267.7930 C.ar    1  LIG1       -0.0533
     10 C          94.8766   53.1828  268.3625 C.ar    1  LIG1       -0.0520
     11 C          94.1744   53.5766  269.5033 C.ar    1  LIG1       -0.0001
     12 C          93.2113   52.6777  270.0810 C.ar    1  LIG1        0.0494
     13 C          92.8959   51.4563  269.4914 C.ar    1  LIG1       -0.0298
     14 C          94.1946   54.7419  270.3240 C.ar    1  LIG1       -0.0365
     15 C          93.3205   54.5041  271.3412 C.ar    1  LIG1        0.0054
     16 N          92.7610   53.2794  271.2415 N.ar    1  LIG1       -0.3497
     17 N          94.7935   46.5354  266.7547 N.ar    1  LIG1       -0.2519
     18 C          96.0594   46.7465  267.1790 C.ar    1  LIG1        0.0464
     19 C          96.4464   47.9594  267.7361 C.ar    1  LIG1        0.0464
     20 N          95.5618   48.9678  267.9325 N.ar    1  LIG1       -0.2513
     21 C          91.8513   52.7306  272.2454 C.3     1  LIG1        0.0119
     22 C          89.7124   47.3504  265.2983 C.ar    1  LIG1        0.0672
     23 C          88.4077   46.8215  265.3936 C.ar    1  LIG1        0.0758
     24 C          87.8831   46.1009  264.3157 C.ar    1  LIG1       -0.0244
     25 C          88.6642   45.9359  263.1759 C.ar    1  LIG1        0.0289
     26 N          89.9193   46.4305  263.0542 N.ar    1  LIG1       -0.2613
     27 C          90.4194   47.1175  264.1115 C.ar    1  LIG1        0.0499
     28 C          87.5851   46.9636  266.5914 C.1     1  LIG1        0.1011
     29 N          86.9354   47.0770  267.5414 N.1     1  LIG1       -0.1908
     30 H          89.6015   48.6327  266.8831 H       1  LIG1        0.1522
     31 H          91.2174   50.2910  267.4543 H       1  LIG1        0.0643
     32 H          92.2810   46.4076  266.0446 H       1  LIG1        0.0658
     33 H          95.0908   51.6545  266.8941 H       1  LIG1        0.0624
     34 H          95.6296   53.8262  267.9201 H       1  LIG1        0.0624
     35 H          92.1406   50.8044  269.9242 H       1  LIG1        0.0644
     36 H          94.7923   55.6373  270.2448 H       1  LIG1        0.0639
     37 H          93.0701   55.1130  272.1869 H       1  LIG1        0.0809
     38 H          96.7637   45.9455  267.0078 H       1  LIG1        0.0845
     39 H          97.4654   48.1560  268.0273 H       1  LIG1        0.0845
     40 H          91.7086   53.4652  273.0442 H       1  LIG1        0.0456
     41 H          92.2994   51.8408  272.6822 H       1  LIG1        0.0456
     42 H          90.8902   52.5152  271.7871 H       1  LIG1        0.0456
     43 H          86.8922   45.6690  264.3571 H       1  LIG1        0.0646
     44 H          88.2724   45.3817  262.3429 H       1  LIG1        0.0830
     45 H          91.4167   47.4986  263.9885 H       1  LIG1        0.0849
@<TRIPOS>BOND
     1     1     2    1
     2     1    22    1
     3     1    30    1
     4     2     3   ar
     5     2     7   ar
     6     3     4   ar
     7     3    31    1
     8     4     5   ar
     9     4     8    1
    10     5    20   ar
    11     5     6   ar
    12     6     7   ar
    13     6    17   ar
    14     7    32    1
    15     8     9   ar
    16     8    13   ar
    17     9    10   ar
    18     9    33    1
    19    10    11   ar
    20    10    34    1
    21    11    14   ar
    22    11    12   ar
    23    12    13   ar
    24    12    16   ar
    25    13    35    1
    26    14    15   ar
    27    14    36    1
    28    15    16   ar
    29    15    37    1
    30    16    21    1
    31    17    18   ar
    32    18    19   ar
    33    18    38    1
    34    19    20   ar
    35    19    39    1
    36    21    40    1
    37    21    41    1
    38    21    42    1
    39    22    23   ar
    40    22    27   ar
    41    23    24   ar
    42    23    28    1
    43    24    25   ar
    44    24    43    1
    45    25    26   ar
    46    25    44    1
    47    26    27   ar
    48    27    45    1
    49    28    29    3
