@<TRIPOS>MOLECULE
34
 48 52 0 0 0
SMALL
GASTEIGER
****
Structure written by MMmdl.
@<TRIPOS>ATOM
      1 C          92.5675   47.3476  266.4818 C.ar    1  LIG1       -0.0130
      2 C          91.6195   48.3446  266.6702 C.ar    1  LIG1        0.0341
      3 C          91.9774   49.5404  267.2822 C.ar    1  LIG1       -0.0307
      4 C          93.2882   49.8046  267.6879 C.ar    1  LIG1        0.0114
      5 C          94.2739   48.7854  267.5113 C.ar    1  LIG1        0.0969
      6 C          93.8948   47.5437  266.9102 C.ar    1  LIG1        0.0915
      7 N          94.7936   46.5330  266.7587 N.ar    1  LIG1       -0.2519
      8 N          95.5623   48.9682  267.9318 N.ar    1  LIG1       -0.2513
      9 C          96.4466   47.9594  267.7367 C.ar    1  LIG1        0.0464
     10 C          96.0613   46.7461  267.1800 C.ar    1  LIG1        0.0464
     11 N          90.2825   48.1494  266.3000 N.pl3   1  LIG1       -0.3126
     12 C          93.5910   51.1031  268.3371 C.ar    1  LIG1       -0.0138
     13 C          94.5701   51.9487  267.7934 C.ar    1  LIG1       -0.0533
     14 C          94.8764   53.1831  268.3626 C.ar    1  LIG1       -0.0520
     15 C          94.1738   53.5765  269.5033 C.ar    1  LIG1       -0.0001
     16 C          93.2106   52.6774  270.0808 C.ar    1  LIG1        0.0494
     17 C          92.8955   51.4555  269.4914 C.ar    1  LIG1       -0.0298
     18 C          94.1940   54.7417  270.3236 C.ar    1  LIG1       -0.0365
     19 C          93.3211   54.5038  271.3418 C.ar    1  LIG1        0.0054
     20 N          92.7601   53.2789  271.2412 N.ar    1  LIG1       -0.3497
     21 C          89.7058   47.3516  265.2944 C.ar    1  LIG1        0.0619
     22 C          91.8506   52.7297  272.2448 C.3     1  LIG1        0.0119
     23 C          88.4003   46.8132  265.3997 C.ar    1  LIG1        0.0605
     24 C          87.8903   46.1026  264.3004 C.ar    1  LIG1       -0.0297
     25 C          88.6717   45.9405  263.1626 C.ar    1  LIG1        0.0284
     26 N          89.9225   46.4384  263.0456 N.ar    1  LIG1       -0.2614
     27 C          90.4118   47.1270  264.1049 C.ar    1  LIG1        0.0494
     28 C          87.5461   46.9593  266.6443 C.2     1  LIG1        0.2434
     29 N          86.6807   45.9742  266.8909 N.am    1  LIG1       -0.3253
     30 O          87.6482   47.9220  267.4000 O.2     1  LIG1       -0.2704
     31 H          92.2748   46.4011  266.0567 H       1  LIG1        0.0658
     32 H          91.2199   50.2936  267.4430 H       1  LIG1        0.0643
     33 H          97.4656   48.1565  268.0267 H       1  LIG1        0.0845
     34 H          96.7640   45.9455  267.0078 H       1  LIG1        0.0845
     35 H          89.5926   48.5988  266.8874 H       1  LIG1        0.1522
     36 H          95.0905   51.6544  266.8946 H       1  LIG1        0.0624
     37 H          95.6297   53.8262  267.9199 H       1  LIG1        0.0624
     38 H          92.1403   50.8031  269.9237 H       1  LIG1        0.0644
     39 H          94.7911   55.6375  270.2450 H       1  LIG1        0.0639
     40 H          93.0724   55.1133  272.1872 H       1  LIG1        0.0809
     41 H          91.7082   53.4641  273.0433 H       1  LIG1        0.0456
     42 H          92.2985   51.8398  272.6819 H       1  LIG1        0.0456
     43 H          90.8892   52.5140  271.7869 H       1  LIG1        0.0456
     44 H          86.8976   45.6795  264.3121 H       1  LIG1        0.0641
     45 H          88.2724   45.3933  262.3292 H       1  LIG1        0.0830
     46 H          91.4048   47.5141  263.9802 H       1  LIG1        0.0849
     47 H          86.0899   46.0225  267.7060 H       1  LIG1        0.1453
     48 H          86.6017   45.1896  266.2549 H       1  LIG1        0.1453
@<TRIPOS>BOND
     1     1     2   ar
     2     1     6   ar
     3     1    31    1
     4     2     3   ar
     5     2    11    1
     6     3     4   ar
     7     3    32    1
     8     4     5   ar
     9     4    12    1
    10     5     6   ar
    11     5     8   ar
    12     6     7   ar
    13     7    10   ar
    14     8     9   ar
    15     9    10   ar
    16     9    33    1
    17    10    34    1
    18    11    21    1
    19    11    35    1
    20    12    13   ar
    21    12    17   ar
    22    13    14   ar
    23    13    36    1
    24    14    15   ar
    25    14    37    1
    26    15    18   ar
    27    15    16   ar
    28    16    17   ar
    29    16    20   ar
    30    17    38    1
    31    18    19   ar
    32    18    39    1
    33    19    20   ar
    34    19    40    1
    35    20    22    1
    36    21    27   ar
    37    21    23   ar
    38    22    41    1
    39    22    42    1
    40    22    43    1
    41    23    24   ar
    42    23    28    1
    43    24    25   ar
    44    24    44    1
    45    25    26   ar
    46    25    45    1
    47    26    27   ar
    48    27    46    1
    49    28    29   am
    50    28    30    2
    51    29    47    1
    52    29    48    1
