34
 OpenBabel02152110423D
Structure written by MMmdl.
 48 52  0  0  1  0  0  0  0  0999 V2000
   92.5675   47.3476  266.4818 C   0  0  0  0  0  0  0  0  0  0  0  0
   91.6195   48.3446  266.6702 C   0  0  0  0  0  0  0  0  0  0  0  0
   91.9774   49.5404  267.2822 C   0  0  0  0  0  0  0  0  0  0  0  0
   93.2882   49.8046  267.6879 C   0  0  0  0  0  0  0  0  0  0  0  0
   94.2739   48.7854  267.5113 C   0  0  0  0  0  0  0  0  0  0  0  0
   93.8948   47.5437  266.9102 C   0  0  0  0  0  0  0  0  0  0  0  0
   94.7936   46.5330  266.7587 N   0  0  0  0  0  0  0  0  0  0  0  0
   95.5623   48.9682  267.9318 N   0  0  0  0  0  0  0  0  0  0  0  0
   96.4466   47.9594  267.7367 C   0  0  0  0  0  0  0  0  0  0  0  0
   96.0613   46.7461  267.1800 C   0  0  0  0  0  0  0  0  0  0  0  0
   90.2825   48.1494  266.3000 N   0  0  0  0  0  0  0  0  0  0  0  0
   93.5910   51.1031  268.3371 C   0  0  0  0  0  0  0  0  0  0  0  0
   94.5701   51.9487  267.7934 C   0  0  0  0  0  0  0  0  0  0  0  0
   94.8764   53.1831  268.3626 C   0  0  0  0  0  0  0  0  0  0  0  0
   94.1738   53.5765  269.5033 C   0  0  0  0  0  0  0  0  0  0  0  0
   93.2106   52.6774  270.0808 C   0  0  0  0  0  0  0  0  0  0  0  0
   92.8955   51.4555  269.4914 C   0  0  0  0  0  0  0  0  0  0  0  0
   94.1940   54.7417  270.3236 C   0  0  0  0  0  0  0  0  0  0  0  0
   93.3211   54.5038  271.3418 C   0  0  0  0  0  0  0  0  0  0  0  0
   92.7601   53.2789  271.2412 N   0  0  0  0  0  0  0  0  0  0  0  0
   89.7058   47.3516  265.2944 C   0  0  0  0  0  0  0  0  0  0  0  0
   91.8506   52.7297  272.2448 C   0  0  0  0  0  0  0  0  0  0  0  0
   88.4003   46.8132  265.3997 C   0  0  0  0  0  0  0  0  0  0  0  0
   87.8903   46.1026  264.3004 C   0  0  0  0  0  0  0  0  0  0  0  0
   88.6717   45.9405  263.1626 C   0  0  0  0  0  0  0  0  0  0  0  0
   89.9225   46.4384  263.0456 N   0  0  0  0  0  0  0  0  0  0  0  0
   90.4118   47.1270  264.1049 C   0  0  0  0  0  0  0  0  0  0  0  0
   87.5461   46.9593  266.6443 C   0  0  0  0  0  0  0  0  0  0  0  0
   86.6807   45.9742  266.8909 N   0  0  0  0  0  0  0  0  0  0  0  0
   87.6482   47.9220  267.4000 O   0  0  0  0  0  0  0  0  0  0  0  0
   92.2748   46.4011  266.0567 H   0  0  0  0  0  0  0  0  0  0  0  0
   91.2199   50.2936  267.4430 H   0  0  0  0  0  0  0  0  0  0  0  0
   97.4656   48.1565  268.0267 H   0  0  0  0  0  0  0  0  0  0  0  0
   96.7640   45.9455  267.0078 H   0  0  0  0  0  0  0  0  0  0  0  0
   89.5926   48.5988  266.8874 H   0  0  0  0  0  0  0  0  0  0  0  0
   95.0905   51.6544  266.8946 H   0  0  0  0  0  0  0  0  0  0  0  0
   95.6297   53.8262  267.9199 H   0  0  0  0  0  0  0  0  0  0  0  0
   92.1403   50.8031  269.9237 H   0  0  0  0  0  0  0  0  0  0  0  0
   94.7911   55.6375  270.2450 H   0  0  0  0  0  0  0  0  0  0  0  0
   93.0724   55.1133  272.1872 H   0  0  0  0  0  0  0  0  0  0  0  0
   91.7082   53.4641  273.0433 H   0  0  0  0  0  0  0  0  0  0  0  0
   92.2985   51.8398  272.6819 H   0  0  0  0  0  0  0  0  0  0  0  0
   90.8892   52.5140  271.7869 H   0  0  0  0  0  0  0  0  0  0  0  0
   86.8976   45.6795  264.3121 H   0  0  0  0  0  0  0  0  0  0  0  0
   88.2724   45.3933  262.3292 H   0  0  0  0  0  0  0  0  0  0  0  0
   91.4048   47.5141  263.9802 H   0  0  0  0  0  0  0  0  0  0  0  0
   86.0899   46.0225  267.7060 H   0  0  0  0  0  0  0  0  0  0  0  0
   86.6017   45.1896  266.2549 H   0  0  0  0  0  0  0  0  0  0  0  0
  1  2  1  0  0  0  0
  1  6  2  0  0  0  0
  1 31  1  0  0  0  0
  2  3  2  0  0  0  0
  2 11  1  0  0  0  0
  3  4  1  0  0  0  0
  3 32  1  0  0  0  0
  4  5  2  0  0  0  0
  4 12  1  0  0  0  0
  5  6  1  0  0  0  0
  5  8  1  0  0  0  0
  6  7  1  0  0  0  0
  7 10  2  0  0  0  0
  8  9  2  0  0  0  0
  9 10  1  0  0  0  0
  9 33  1  0  0  0  0
 10 34  1  0  0  0  0
 11 21  1  0  0  0  0
 11 35  1  0  0  0  0
 12 13  2  0  0  0  0
 12 17  1  0  0  0  0
 13 14  1  0  0  0  0
 13 36  1  0  0  0  0
 14 15  2  0  0  0  0
 14 37  1  0  0  0  0
 15 18  1  0  0  0  0
 15 16  1  0  0  0  0
 16 17  2  0  0  0  0
 16 20  1  0  0  0  0
 17 38  1  0  0  0  0
 18 19  2  0  0  0  0
 18 39  1  0  0  0  0
 19 20  1  0  0  0  0
 19 40  1  0  0  0  0
 20 22  1  0  0  0  0
 21 27  1  0  0  0  0
 21 23  2  0  0  0  0
 22 41  1  0  0  0  0
 22 42  1  0  0  0  0
 22 43  1  0  0  0  0
 23 24  1  0  0  0  0
 23 28  1  0  0  0  0
 24 25  2  0  0  0  0
 24 44  1  0  0  0  0
 25 26  1  0  0  0  0
 25 45  1  0  0  0  0
 26 27  2  0  0  0  0
 27 46  1  0  0  0  0
 28 29  1  0  0  0  0
 28 30  2  0  0  0  0
 29 47  1  0  0  0  0
 29 48  1  0  0  0  0
M  END
>  <ID>
34

>  <IC50[uM]>
0.049

$$$$
