@<TRIPOS>MOLECULE
35
 50 54 0 0 0
SMALL
GASTEIGER
****
Structure written by MMmdl.
@<TRIPOS>ATOM
      1 C          91.6086   48.3265  266.6693 C.ar    1  LIG1        0.0341
      2 C          91.9732   49.5289  267.2740 C.ar    1  LIG1       -0.0307
      3 C          93.2849   49.7831  267.6765 C.ar    1  LIG1        0.0114
      4 C          94.2756   48.7716  267.5148 C.ar    1  LIG1        0.0969
      5 C          93.8941   47.5269  266.9163 C.ar    1  LIG1        0.0915
      6 C          92.5664   47.3356  266.4869 C.ar    1  LIG1       -0.0130
      7 C          93.5944   51.0830  268.3283 C.ar    1  LIG1       -0.0138
      8 C          92.9019   51.4420  269.4800 C.ar    1  LIG1       -0.0298
      9 C          93.1886   52.6739  270.0653 C.ar    1  LIG1        0.0494
     10 C          94.1369   53.5702  269.4983 C.ar    1  LIG1       -0.0001
     11 C          94.8396   53.1647  268.3583 C.ar    1  LIG1       -0.0520
     12 C          94.5632   51.9211  267.7840 C.ar    1  LIG1       -0.0533
     13 N          94.8011   46.5237  266.7692 N.ar    1  LIG1       -0.2519
     14 C          96.0655   46.7425  267.1959 C.ar    1  LIG1        0.0464
     15 C          96.4524   47.9539  267.7595 C.ar    1  LIG1        0.0464
     16 N          95.5606   48.9571  267.9440 N.ar    1  LIG1       -0.2513
     17 N          90.2742   48.1229  266.3119 N.pl3   1  LIG1       -0.3118
     18 C          94.1551   54.7196  270.3381 C.ar    1  LIG1       -0.0365
     19 C          93.2925   54.4888  271.3906 C.ar    1  LIG1        0.0054
     20 N          92.7216   53.2581  271.2260 N.ar    1  LIG1       -0.3497
     21 C          91.8085   52.6518  272.1779 C.3     1  LIG1        0.0119
     22 C          89.7147   47.3400  265.2872 C.ar    1  LIG1        0.0748
     23 C          88.4272   46.7998  265.4019 C.ar    1  LIG1        0.1118
     24 C          87.8901   46.0853  264.3199 C.ar    1  LIG1       -0.0169
     25 C          88.6593   45.9358  263.1678 C.ar    1  LIG1        0.0295
     26 N          89.9101   46.4426  263.0385 N.ar    1  LIG1       -0.2613
     27 C          90.4183   47.1199  264.0947 C.ar    1  LIG1        0.0505
     28 S          87.4704   46.8899  266.9209 S.O2    1  LIG1       -0.0040
     29 O          86.1418   46.3963  266.6721 O.2     1  LIG1       -0.1696
     30 O          87.6670   48.2589  267.4823 O.2     1  LIG1       -0.1696
     31 C          88.3758   45.6752  268.0371 C.3     1  LIG1        0.0597
     32 H          91.2142   50.2817  267.4378 H       1  LIG1        0.0643
     33 H          92.2918   46.3918  266.0429 H       1  LIG1        0.0658
     34 H          92.1734   50.7821  269.9163 H       1  LIG1        0.0644
     35 H          95.5918   53.7986  267.9326 H       1  LIG1        0.0624
     36 H          95.1026   51.6249  266.8951 H       1  LIG1        0.0624
     37 H          96.7742   45.9445  267.0407 H       1  LIG1        0.0845
     38 H          97.4746   48.1476  268.0493 H       1  LIG1        0.0845
     39 H          89.5809   48.6035  266.8760 H       1  LIG1        0.1522
     40 H          94.7866   55.6032  270.1906 H       1  LIG1        0.0639
     41 H          93.0402   55.0710  272.2767 H       1  LIG1        0.0809
     42 H          90.8575   52.4402  271.6717 H       1  LIG1        0.0456
     43 H          91.6483   53.3577  272.9998 H       1  LIG1        0.0456
     44 H          92.2609   51.7273  272.5708 H       1  LIG1        0.0456
     45 H          86.9053   45.6446  264.3755 H       1  LIG1        0.0652
     46 H          88.2754   45.3851  262.3251 H       1  LIG1        0.0830
     47 H          91.4087   47.5286  263.9693 H       1  LIG1        0.0849
     48 H          87.8581   45.6244  268.9917 H       1  LIG1        0.0468
     49 H          89.3988   46.0130  268.1794 H       1  LIG1        0.0468
     50 H          88.3595   44.6958  267.5571 H       1  LIG1        0.0468
@<TRIPOS>BOND
     1     1     2   ar
     2     1     6   ar
     3     1    17    1
     4     2     3   ar
     5     2    32    1
     6     3     4   ar
     7     3     7    1
     8     4     5   ar
     9     4    16   ar
    10     5     6   ar
    11     5    13   ar
    12     6    33    1
    13     7     8   ar
    14     7    12   ar
    15     8     9   ar
    16     8    34    1
    17     9    10   ar
    18     9    20   ar
    19    10    11   ar
    20    10    18   ar
    21    11    12   ar
    22    11    35    1
    23    12    36    1
    24    13    14   ar
    25    14    15   ar
    26    14    37    1
    27    15    16   ar
    28    15    38    1
    29    17    22    1
    30    17    39    1
    31    18    19   ar
    32    18    40    1
    33    19    20   ar
    34    19    41    1
    35    20    21    1
    36    21    42    1
    37    21    43    1
    38    21    44    1
    39    22    23   ar
    40    22    27   ar
    41    23    24   ar
    42    23    28    1
    43    24    25   ar
    44    24    45    1
    45    25    26   ar
    46    25    46    1
    47    26    27   ar
    48    27    47    1
    49    28    29    2
    50    28    30    2
    51    28    31    1
    52    31    48    1
    53    31    49    1
    54    31    50    1
