35
 OpenBabel02152110423D
Structure written by MMmdl.
 50 54  0  0  1  0  0  0  0  0999 V2000
   91.6086   48.3265  266.6693 C   0  0  0  0  0  0  0  0  0  0  0  0
   91.9732   49.5289  267.2740 C   0  0  0  0  0  0  0  0  0  0  0  0
   93.2849   49.7831  267.6765 C   0  0  0  0  0  0  0  0  0  0  0  0
   94.2756   48.7716  267.5148 C   0  0  0  0  0  0  0  0  0  0  0  0
   93.8941   47.5269  266.9163 C   0  0  0  0  0  0  0  0  0  0  0  0
   92.5664   47.3356  266.4869 C   0  0  0  0  0  0  0  0  0  0  0  0
   93.5944   51.0830  268.3283 C   0  0  0  0  0  0  0  0  0  0  0  0
   92.9019   51.4420  269.4800 C   0  0  0  0  0  0  0  0  0  0  0  0
   93.1886   52.6739  270.0653 C   0  0  0  0  0  0  0  0  0  0  0  0
   94.1369   53.5702  269.4983 C   0  0  0  0  0  0  0  0  0  0  0  0
   94.8396   53.1647  268.3583 C   0  0  0  0  0  0  0  0  0  0  0  0
   94.5632   51.9211  267.7840 C   0  0  0  0  0  0  0  0  0  0  0  0
   94.8011   46.5237  266.7692 N   0  0  0  0  0  0  0  0  0  0  0  0
   96.0655   46.7425  267.1959 C   0  0  0  0  0  0  0  0  0  0  0  0
   96.4524   47.9539  267.7595 C   0  0  0  0  0  0  0  0  0  0  0  0
   95.5606   48.9571  267.9440 N   0  0  0  0  0  0  0  0  0  0  0  0
   90.2742   48.1229  266.3119 N   0  0  0  0  0  0  0  0  0  0  0  0
   94.1551   54.7196  270.3381 C   0  0  0  0  0  0  0  0  0  0  0  0
   93.2925   54.4888  271.3906 C   0  0  0  0  0  0  0  0  0  0  0  0
   92.7216   53.2581  271.2260 N   0  0  0  0  0  0  0  0  0  0  0  0
   91.8085   52.6518  272.1779 C   0  0  0  0  0  0  0  0  0  0  0  0
   89.7147   47.3400  265.2872 C   0  0  0  0  0  0  0  0  0  0  0  0
   88.4272   46.7998  265.4019 C   0  0  0  0  0  0  0  0  0  0  0  0
   87.8901   46.0853  264.3199 C   0  0  0  0  0  0  0  0  0  0  0  0
   88.6593   45.9358  263.1678 C   0  0  0  0  0  0  0  0  0  0  0  0
   89.9101   46.4426  263.0385 N   0  0  0  0  0  0  0  0  0  0  0  0
   90.4183   47.1199  264.0947 C   0  0  0  0  0  0  0  0  0  0  0  0
   87.4704   46.8899  266.9209 S   0  0  0  0  0  0  0  0  0  0  0  0
   86.1418   46.3963  266.6721 O   0  0  0  0  0  0  0  0  0  0  0  0
   87.6670   48.2589  267.4823 O   0  0  0  0  0  0  0  0  0  0  0  0
   88.3758   45.6752  268.0371 C   0  0  0  0  0  0  0  0  0  0  0  0
   91.2142   50.2817  267.4378 H   0  0  0  0  0  0  0  0  0  0  0  0
   92.2918   46.3918  266.0429 H   0  0  0  0  0  0  0  0  0  0  0  0
   92.1734   50.7821  269.9163 H   0  0  0  0  0  0  0  0  0  0  0  0
   95.5918   53.7986  267.9326 H   0  0  0  0  0  0  0  0  0  0  0  0
   95.1026   51.6249  266.8951 H   0  0  0  0  0  0  0  0  0  0  0  0
   96.7742   45.9445  267.0407 H   0  0  0  0  0  0  0  0  0  0  0  0
   97.4746   48.1476  268.0493 H   0  0  0  0  0  0  0  0  0  0  0  0
   89.5809   48.6035  266.8760 H   0  0  0  0  0  0  0  0  0  0  0  0
   94.7866   55.6032  270.1906 H   0  0  0  0  0  0  0  0  0  0  0  0
   93.0402   55.0710  272.2767 H   0  0  0  0  0  0  0  0  0  0  0  0
   90.8575   52.4402  271.6717 H   0  0  0  0  0  0  0  0  0  0  0  0
   91.6483   53.3577  272.9998 H   0  0  0  0  0  0  0  0  0  0  0  0
   92.2609   51.7273  272.5708 H   0  0  0  0  0  0  0  0  0  0  0  0
   86.9053   45.6446  264.3755 H   0  0  0  0  0  0  0  0  0  0  0  0
   88.2754   45.3851  262.3251 H   0  0  0  0  0  0  0  0  0  0  0  0
   91.4087   47.5286  263.9693 H   0  0  0  0  0  0  0  0  0  0  0  0
   87.8581   45.6244  268.9917 H   0  0  0  0  0  0  0  0  0  0  0  0
   89.3988   46.0130  268.1794 H   0  0  0  0  0  0  0  0  0  0  0  0
   88.3595   44.6958  267.5571 H   0  0  0  0  0  0  0  0  0  0  0  0
  1  2  2  0  0  0  0
  1  6  1  0  0  0  0
  1 17  1  0  0  0  0
  2  3  1  0  0  0  0
  2 32  1  0  0  0  0
  3  4  2  0  0  0  0
  3  7  1  0  0  0  0
  4  5  1  0  0  0  0
  4 16  1  0  0  0  0
  5  6  2  0  0  0  0
  5 13  1  0  0  0  0
  6 33  1  0  0  0  0
  7  8  2  0  0  0  0
  7 12  1  0  0  0  0
  8  9  1  0  0  0  0
  8 34  1  0  0  0  0
  9 10  2  0  0  0  0
  9 20  1  0  0  0  0
 10 11  1  0  0  0  0
 10 18  1  0  0  0  0
 11 12  2  0  0  0  0
 11 35  1  0  0  0  0
 12 36  1  0  0  0  0
 13 14  2  0  0  0  0
 14 15  1  0  0  0  0
 14 37  1  0  0  0  0
 15 16  2  0  0  0  0
 15 38  1  0  0  0  0
 17 22  1  0  0  0  0
 17 39  1  0  0  0  0
 18 19  2  0  0  0  0
 18 40  1  0  0  0  0
 19 20  1  0  0  0  0
 19 41  1  0  0  0  0
 20 21  1  0  0  0  0
 21 42  1  0  0  0  0
 21 43  1  0  0  0  0
 21 44  1  0  0  0  0
 22 23  1  0  0  0  0
 22 27  2  0  0  0  0
 23 24  2  0  0  0  0
 23 28  1  0  0  0  0
 24 25  1  0  0  0  0
 24 45  1  0  0  0  0
 25 26  2  0  0  0  0
 25 46  1  0  0  0  0
 26 27  1  0  0  0  0
 27 47  1  0  0  0  0
 28 29  2  0  0  0  0
 28 30  2  0  0  0  0
 28 31  1  0  0  0  0
 31 48  1  0  0  0  0
 31 49  1  0  0  0  0
 31 50  1  0  0  0  0
M  END
>  <ID>
35

>  <IC50[uM]>
0.037

$$$$
