@<TRIPOS>MOLECULE
36
 53 57 0 0 0
SMALL
GASTEIGER
****
Structure written by MMmdl.
@<TRIPOS>ATOM
      1 C          92.5019   47.4809  266.5012 C.ar    1  LIG1       -0.0128
      2 C          91.4857   48.4054  266.7703 C.ar    1  LIG1        0.0365
      3 C          91.8311   49.6033  267.4005 C.ar    1  LIG1       -0.0305
      4 C          93.1329   49.9008  267.8027 C.ar    1  LIG1        0.0114
      5 C          93.8203   47.7090  266.9243 C.ar    1  LIG1        0.0915
      6 C          94.1662   48.9379  267.5838 C.ar    1  LIG1        0.0969
      7 N          95.4395   49.1394  268.0247 N.ar    1  LIG1       -0.2513
      8 C          96.3424   48.1461  267.8444 C.ar    1  LIG1        0.0464
      9 C          96.0073   46.9541  267.2235 C.ar    1  LIG1        0.0464
     10 N          94.7573   46.7424  266.7458 N.ar    1  LIG1       -0.2519
     11 C          93.3550   51.1745  268.5297 C.ar    1  LIG1       -0.0138
     12 C          94.3019   52.0919  268.1026 C.ar    1  LIG1       -0.0533
     13 C          94.5054   53.3019  268.7680 C.ar    1  LIG1       -0.0520
     14 C          92.5738   51.4295  269.6693 C.ar    1  LIG1       -0.0298
     15 C          92.8404   52.5915  270.3967 C.ar    1  LIG1        0.0494
     16 C          93.7750   53.5611  269.9435 C.ar    1  LIG1       -0.0001
     17 C          93.7328   54.6344  270.8820 C.ar    1  LIG1       -0.0365
     18 C          92.9093   54.2418  271.9260 C.ar    1  LIG1        0.0054
     19 N          92.3458   53.0191  271.6075 N.ar    1  LIG1       -0.3497
     20 N          90.1525   48.0937  266.3996 N.pl3   1  LIG1       -0.3004
     21 C          91.3984   52.2974  272.4351 C.3     1  LIG1        0.0119
     22 C          89.8025   47.1713  265.4107 C.ar    1  LIG1        0.0771
     23 C          88.7064   46.2853  265.4708 C.ar    1  LIG1        0.1120
     24 C          88.3920   45.5465  264.3239 C.ar    1  LIG1       -0.0169
     25 C          89.1630   45.7166  263.1759 C.ar    1  LIG1        0.0295
     26 N          90.3008   46.4328  263.1436 N.ar    1  LIG1       -0.2613
     27 C          90.6083   47.1291  264.2614 C.ar    1  LIG1        0.0507
     28 S          87.7536   46.0522  266.9862 S.O2    1  LIG1       -0.0040
     29 O          87.6334   47.3703  267.6019 O.2     1  LIG1       -0.1696
     30 O          86.5414   45.3174  266.6269 O.2     1  LIG1       -0.1696
     31 C          88.7842   44.9495  268.1463 C.3     1  LIG1        0.0597
     32 C          89.0277   48.5933  267.1930 C.3     1  LIG1        0.0059
     33 H          92.2739   46.5354  266.0341 H       1  LIG1        0.0658
     34 H          91.0802   50.3370  267.6197 H       1  LIG1        0.0643
     35 H          97.3500   48.3260  268.1900 H       1  LIG1        0.0845
     36 H          96.7164   46.1616  267.0807 H       1  LIG1        0.0845
     37 H          94.8847   51.8876  267.2116 H       1  LIG1        0.0624
     38 H          95.2293   54.0106  268.4023 H       1  LIG1        0.0624
     39 H          91.8324   50.7201  269.9931 H       1  LIG1        0.0644
     40 H          94.2804   55.5661  270.8313 H       1  LIG1        0.0639
     41 H          92.6568   54.7230  272.8364 H       1  LIG1        0.0809
     42 H          91.2584   52.7970  273.3926 H       1  LIG1        0.0456
     43 H          91.7765   51.2904  272.6187 H       1  LIG1        0.0456
     44 H          90.4452   52.2301  271.9110 H       1  LIG1        0.0456
     45 H          87.6107   44.8283  264.3234 H       1  LIG1        0.0652
     46 H          88.8449   45.2396  262.2594 H       1  LIG1        0.0830
     47 H          91.4889   47.7368  264.2338 H       1  LIG1        0.0849
     48 H          88.2085   44.8033  269.0647 H       1  LIG1        0.0468
     49 H          89.7347   45.4322  268.3765 H       1  LIG1        0.0468
     50 H          88.9505   43.9840  267.6632 H       1  LIG1        0.0468
     51 H          88.8013   47.8870  268.0013 H       1  LIG1        0.0432
     52 H          88.1379   48.7100  266.5759 H       1  LIG1        0.0432
     53 H          89.2234   49.5809  267.6275 H       1  LIG1        0.0432
@<TRIPOS>BOND
     1     1     2   ar
     2     1     5   ar
     3     1    33    1
     4     2     3   ar
     5     2    20    1
     6     3     4   ar
     7     3    34    1
     8     4     6   ar
     9     4    11    1
    10     5     6   ar
    11     5    10   ar
    12     6     7   ar
    13     7     8   ar
    14     8     9   ar
    15     8    35    1
    16     9    10   ar
    17     9    36    1
    18    11    12   ar
    19    11    14   ar
    20    12    13   ar
    21    12    37    1
    22    13    16   ar
    23    13    38    1
    24    14    15   ar
    25    14    39    1
    26    15    16   ar
    27    15    19   ar
    28    16    17   ar
    29    17    18   ar
    30    17    40    1
    31    18    19   ar
    32    18    41    1
    33    19    21    1
    34    20    22    1
    35    20    32    1
    36    21    42    1
    37    21    43    1
    38    21    44    1
    39    22    23   ar
    40    22    27   ar
    41    23    24   ar
    42    23    28    1
    43    24    25   ar
    44    24    45    1
    45    25    26   ar
    46    25    46    1
    47    26    27   ar
    48    27    47    1
    49    28    29    2
    50    28    30    2
    51    28    31    1
    52    31    48    1
    53    31    49    1
    54    31    50    1
    55    32    51    1
    56    32    52    1
    57    32    53    1
