37
 OpenBabel02152110423D
Structure written by MMmdl.
 62 67  0  0  1  0  0  0  0  0999 V2000
   92.5682   47.3462  266.4833 C   0  0  0  0  0  0  0  0  0  0  0  0
   91.6181   48.3452  266.6664 C   0  0  0  0  0  0  0  0  0  0  0  0
   91.9789   49.5400  267.2763 C   0  0  0  0  0  0  0  0  0  0  0  0
   93.2937   49.7963  267.6790 C   0  0  0  0  0  0  0  0  0  0  0  0
   93.8967   47.5399  266.9140 C   0  0  0  0  0  0  0  0  0  0  0  0
   94.2761   48.7809  267.5103 C   0  0  0  0  0  0  0  0  0  0  0  0
   95.5636   48.9666  267.9328 N   0  0  0  0  0  0  0  0  0  0  0  0
   96.4501   47.9585  267.7397 C   0  0  0  0  0  0  0  0  0  0  0  0
   96.0608   46.7452  267.1831 C   0  0  0  0  0  0  0  0  0  0  0  0
   94.7948   46.5277  266.7655 N   0  0  0  0  0  0  0  0  0  0  0  0
   93.5976   51.0957  268.3217 C   0  0  0  0  0  0  0  0  0  0  0  0
   90.2871   48.1511  266.2958 N   0  0  0  0  0  0  0  0  0  0  0  0
   94.5711   51.9448  267.7868 C   0  0  0  0  0  0  0  0  0  0  0  0
   94.8615   53.1780  268.3681 C   0  0  0  0  0  0  0  0  0  0  0  0
   92.8931   51.4384  269.4756 C   0  0  0  0  0  0  0  0  0  0  0  0
   93.1961   52.6578  270.0710 C   0  0  0  0  0  0  0  0  0  0  0  0
   94.1500   53.5596  269.5095 C   0  0  0  0  0  0  0  0  0  0  0  0
   94.1496   54.7271  270.3451 C   0  0  0  0  0  0  0  0  0  0  0  0
   93.2853   54.4571  271.3772 C   0  0  0  0  0  0  0  0  0  0  0  0
   92.7216   53.2230  271.2344 N   0  0  0  0  0  0  0  0  0  0  0  0
   89.7168   47.3542  265.2854 C   0  0  0  0  0  0  0  0  0  0  0  0
   88.4155   46.8174  265.3915 C   0  0  0  0  0  0  0  0  0  0  0  0
   87.9008   46.1080  264.2919 C   0  0  0  0  0  0  0  0  0  0  0  0
   88.6799   45.9426  263.1569 C   0  0  0  0  0  0  0  0  0  0  0  0
   89.9312   46.4387  263.0407 N   0  0  0  0  0  0  0  0  0  0  0  0
   90.4252   47.1278  264.0989 C   0  0  0  0  0  0  0  0  0  0  0  0
   87.5601   46.9683  266.6297 C   0  0  0  0  0  0  0  0  0  0  0  0
   87.6700   47.9323  267.3876 O   0  0  0  0  0  0  0  0  0  0  0  0
   86.6670   45.9862  266.8167 N   0  0  0  0  0  0  0  0  0  0  0  0
   85.5963   45.9500  267.7902 C   0  0  0  0  0  0  0  0  0  0  0  0
   91.8041   52.6238  272.1856 C   0  0  0  0  0  0  0  0  0  0  0  0
   85.8697   44.9843  268.9505 C   0  0  0  0  0  0  0  0  0  0  0  0
   84.6496   44.8209  269.8728 C   0  0  0  0  0  0  0  0  0  0  0  0
   83.4889   44.4695  269.1237 O   0  0  0  0  0  0  0  0  0  0  0  0
   83.1249   45.4242  268.1288 C   0  0  0  0  0  0  0  0  0  0  0  0
   84.2584   45.6197  267.1140 C   0  0  0  0  0  0  0  0  0  0  0  0
   92.2770   46.3996  266.0578 H   0  0  0  0  0  0  0  0  0  0  0  0
   91.2242   50.2942  267.4384 H   0  0  0  0  0  0  0  0  0  0  0  0
   97.4700   48.1595  268.0271 H   0  0  0  0  0  0  0  0  0  0  0  0
   96.7659   45.9451  267.0116 H   0  0  0  0  0  0  0  0  0  0  0  0
   89.5946   48.5928  266.8897 H   0  0  0  0  0  0  0  0  0  0  0  0
   95.0958   51.6551  266.8939 H   0  0  0  0  0  0  0  0  0  0  0  0
   95.6155   53.8250  267.9345 H   0  0  0  0  0  0  0  0  0  0  0  0
   92.1478   50.7838  269.9041 H   0  0  0  0  0  0  0  0  0  0  0  0
   94.7390   55.6112  270.2761 H   0  0  0  0  0  0  0  0  0  0  0  0
   93.0455   55.0371  272.2307 H   0  0  0  0  0  0  0  0  0  0  0  0
   86.9050   45.6848  264.3020 H   0  0  0  0  0  0  0  0  0  0  0  0
   88.2773   45.3912  262.3250 H   0  0  0  0  0  0  0  0  0  0  0  0
   91.4139   47.5230  263.9796 H   0  0  0  0  0  0  0  0  0  0  0  0
   86.7305   45.1658  266.2195 H   0  0  0  0  0  0  0  0  0  0  0  0
   85.4687   46.9437  268.2348 H   0  0  0  0  0  0  0  0  0  0  0  0
   91.6215   53.3064  273.0147 H   0  0  0  0  0  0  0  0  0  0  0  0
   92.2473   51.7095  272.5766 H   0  0  0  0  0  0  0  0  0  0  0  0
   90.8673   52.3927  271.6850 H   0  0  0  0  0  0  0  0  0  0  0  0
   86.7428   45.3049  269.5229 H   0  0  0  0  0  0  0  0  0  0  0  0
   86.1061   44.0003  268.5380 H   0  0  0  0  0  0  0  0  0  0  0  0
   84.4589   45.7637  270.3907 H   0  0  0  0  0  0  0  0  0  0  0  0
   84.8389   44.0692  270.6375 H   0  0  0  0  0  0  0  0  0  0  0  0
   82.9089   46.3828  268.6064 H   0  0  0  0  0  0  0  0  0  0  0  0
   82.2144   45.0974  267.6290 H   0  0  0  0  0  0  0  0  0  0  0  0
   83.9940   46.3812  266.3802 H   0  0  0  0  0  0  0  0  0  0  0  0
   84.3720   44.6839  266.5609 H   0  0  0  0  0  0  0  0  0  0  0  0
  1  2  2  0  0  0  0
  1  5  1  0  0  0  0
  1 37  1  0  0  0  0
  2  3  1  0  0  0  0
  2 12  1  0  0  0  0
  3  4  2  0  0  0  0
  3 38  1  0  0  0  0
  4  6  1  0  0  0  0
  4 11  1  0  0  0  0
  5  6  1  0  0  0  0
  5 10  2  0  0  0  0
  6  7  2  0  0  0  0
  7  8  1  0  0  0  0
  8  9  2  0  0  0  0
  8 39  1  0  0  0  0
  9 10  1  0  0  0  0
  9 40  1  0  0  0  0
 11 13  2  0  0  0  0
 11 15  1  0  0  0  0
 12 21  1  0  0  0  0
 12 41  1  0  0  0  0
 13 14  1  0  0  0  0
 13 42  1  0  0  0  0
 14 17  2  0  0  0  0
 14 43  1  0  0  0  0
 15 16  2  0  0  0  0
 15 44  1  0  0  0  0
 16 17  1  0  0  0  0
 16 20  1  0  0  0  0
 17 18  1  0  0  0  0
 18 19  2  0  0  0  0
 18 45  1  0  0  0  0
 19 20  1  0  0  0  0
 19 46  1  0  0  0  0
 20 31  1  0  0  0  0
 21 22  2  0  0  0  0
 21 26  1  0  0  0  0
 22 23  1  0  0  0  0
 22 27  1  0  0  0  0
 23 24  2  0  0  0  0
 23 47  1  0  0  0  0
 24 25  1  0  0  0  0
 24 48  1  0  0  0  0
 25 26  2  0  0  0  0
 26 49  1  0  0  0  0
 27 28  2  0  0  0  0
 27 29  1  0  0  0  0
 29 30  1  0  0  0  0
 29 50  1  0  0  0  0
 30 32  1  0  0  0  0
 30 36  1  0  0  0  0
 30 51  1  0  0  0  0
 31 52  1  0  0  0  0
 31 53  1  0  0  0  0
 31 54  1  0  0  0  0
 32 33  1  0  0  0  0
 32 55  1  0  0  0  0
 32 56  1  0  0  0  0
 33 34  1  0  0  0  0
 33 57  1  0  0  0  0
 33 58  1  0  0  0  0
 34 35  1  0  0  0  0
 35 36  1  0  0  0  0
 35 59  1  0  0  0  0
 35 60  1  0  0  0  0
 36 61  1  0  0  0  0
 36 62  1  0  0  0  0
M  END
>  <ID>
37

>  <IC50[uM]>
0.047

$$$$
