@<TRIPOS>MOLECULE
38
 51 54 0 0 0
SMALL
GASTEIGER
****
Structure written by MMmdl.
@<TRIPOS>ATOM
      1 C          93.2867   49.7938  267.6782 C.ar    1  LIG1        0.0114
      2 C          92.5654   47.3311  266.4816 C.ar    1  LIG1       -0.0130
      3 C          91.6089   48.3230  266.6726 C.ar    1  LIG1        0.0341
      4 C          91.9718   49.5238  267.2764 C.ar    1  LIG1       -0.0307
      5 C          93.8961   47.5281  266.9156 C.ar    1  LIG1        0.0915
      6 C          94.2745   48.7732  267.5111 C.ar    1  LIG1        0.0969
      7 N          95.5637   48.9600  267.9394 N.ar    1  LIG1       -0.2513
      8 C          96.4525   47.9510  267.7602 C.ar    1  LIG1        0.0464
      9 C          96.0664   46.7362  267.2062 C.ar    1  LIG1        0.0464
     10 N          94.7996   46.5168  266.7811 N.ar    1  LIG1       -0.2519
     11 C          89.7127   47.3363  265.2872 C.ar    1  LIG1        0.0748
     12 C          90.4139   47.1275  264.0953 C.ar    1  LIG1        0.0505
     13 N          89.9037   46.4485  263.0367 N.ar    1  LIG1       -0.2613
     14 C          88.6507   45.9427  263.1625 C.ar    1  LIG1        0.0295
     15 C          87.8846   46.0870  264.3185 C.ar    1  LIG1       -0.0169
     16 C          88.4205   46.7962  265.3983 C.ar    1  LIG1        0.1118
     17 S          87.4819   46.8918  266.9282 S.O2    1  LIG1       -0.0040
     18 O          86.1279   46.3929  266.6697 O.2     1  LIG1       -0.1696
     19 C          88.3703   45.6406  268.0228 C.3     1  LIG1        0.0597
     20 O          87.6772   48.2349  267.4843 O.2     1  LIG1       -0.1696
     21 N          90.2707   48.1110  266.3142 N.pl3   1  LIG1       -0.3118
     22 C          93.5987   51.1027  268.3120 C.ar    1  LIG1       -0.0140
     23 C          92.9194   51.5074  269.4662 C.ar    1  LIG1       -0.0329
     24 C          93.2015   52.7233  270.1079 C.ar    1  LIG1        0.0298
     25 C          94.1623   53.5590  269.5218 C.ar    1  LIG1       -0.0406
     26 C          94.8605   53.1670  268.3804 C.ar    1  LIG1       -0.0594
     27 C          94.5797   51.9421  267.7804 C.ar    1  LIG1       -0.0538
     28 N          92.5677   53.0728  271.3295 N.pl3   1  LIG1       -0.3360
     29 C          92.8524   54.3513  271.9762 C.3     1  LIG1        0.0004
     30 C          91.4472   52.2880  271.8453 C.3     1  LIG1        0.0004
     31 H          92.2797   46.3851  266.0467 H       1  LIG1        0.0658
     32 H          91.2121   50.2761  267.4285 H       1  LIG1        0.0643
     33 H          97.4763   48.1494  268.0460 H       1  LIG1        0.0845
     34 H          96.7758   45.9385  267.0386 H       1  LIG1        0.0845
     35 H          91.4110   47.5227  263.9794 H       1  LIG1        0.0849
     36 H          88.2698   45.3853  262.3211 H       1  LIG1        0.0830
     37 H          86.9033   45.6379  264.3878 H       1  LIG1        0.0652
     38 H          87.8420   45.5238  268.9687 H       1  LIG1        0.0468
     39 H          89.3912   45.9889  268.1760 H       1  LIG1        0.0468
     40 H          88.3713   44.6834  267.5060 H       1  LIG1        0.0468
     41 H          89.5657   48.5886  266.8661 H       1  LIG1        0.1522
     42 H          92.1906   50.8306  269.8810 H       1  LIG1        0.0642
     43 H          94.4187   54.5084  269.9653 H       1  LIG1        0.0636
     44 H          95.6109   53.8148  267.9531 H       1  LIG1        0.0618
     45 H          95.1248   51.6489  266.8935 H       1  LIG1        0.0624
     46 H          92.3418   54.4587  272.9342 H       1  LIG1        0.0428
     47 H          92.5305   55.1700  271.3335 H       1  LIG1        0.0428
     48 H          93.9219   54.4733  272.1494 H       1  LIG1        0.0428
     49 H          91.1227   52.6357  272.8266 H       1  LIG1        0.0428
     50 H          91.7109   51.2343  271.9398 H       1  LIG1        0.0428
     51 H          90.6011   52.3612  271.1620 H       1  LIG1        0.0428
@<TRIPOS>BOND
     1     1     4   ar
     2     1     6   ar
     3     1    22    1
     4     2     3   ar
     5     2     5   ar
     6     2    31    1
     7     3     4   ar
     8     3    21    1
     9     4    32    1
    10     5     6   ar
    11     5    10   ar
    12     6     7   ar
    13     7     8   ar
    14     8     9   ar
    15     8    33    1
    16     9    10   ar
    17     9    34    1
    18    11    12   ar
    19    11    16   ar
    20    11    21    1
    21    12    13   ar
    22    12    35    1
    23    13    14   ar
    24    14    15   ar
    25    14    36    1
    26    15    16   ar
    27    15    37    1
    28    16    17    1
    29    17    18    2
    30    17    19    1
    31    17    20    2
    32    19    38    1
    33    19    39    1
    34    19    40    1
    35    21    41    1
    36    22    23   ar
    37    22    27   ar
    38    23    24   ar
    39    23    42    1
    40    24    25   ar
    41    24    28    1
    42    25    26   ar
    43    25    43    1
    44    26    27   ar
    45    26    44    1
    46    27    45    1
    47    28    29    1
    48    28    30    1
    49    29    46    1
    50    29    47    1
    51    29    48    1
    52    30    49    1
    53    30    50    1
    54    30    51    1
