@<TRIPOS>MOLECULE
41
 47 50 0 0 0
SMALL
GASTEIGER
****
Structure written by MMmdl.
@<TRIPOS>ATOM
      1 C          93.2782   49.7896  267.6853 C.ar    1  LIG1        0.0114
      2 C          92.5645   47.3279  266.4843 C.ar    1  LIG1       -0.0130
      3 C          91.6114   48.3242  266.6766 C.ar    1  LIG1        0.0341
      4 C          91.9687   49.5189  267.2814 C.ar    1  LIG1       -0.0307
      5 C          93.8940   47.5285  266.9239 C.ar    1  LIG1        0.0915
      6 C          94.2716   48.7689  267.5195 C.ar    1  LIG1        0.0969
      7 N          95.5595   48.9594  267.9444 N.ar    1  LIG1       -0.2513
      8 C          96.4507   47.9529  267.7597 C.ar    1  LIG1        0.0464
      9 C          96.0667   46.7376  267.2079 C.ar    1  LIG1        0.0464
     10 N          94.7985   46.5177  266.7833 N.ar    1  LIG1       -0.2519
     11 C          93.5961   51.0950  268.3176 C.ar    1  LIG1       -0.0123
     12 C          92.8354   51.5850  269.3805 C.ar    1  LIG1       -0.0537
     13 C          93.1459   52.8020  269.9772 C.ar    1  LIG1       -0.0577
     14 C          94.2185   53.5485  269.5127 C.ar    1  LIG1       -0.0196
     15 C          94.9646   53.1033  268.4055 C.ar    1  LIG1        0.1306
     16 C          94.6620   51.8657  267.8407 C.ar    1  LIG1       -0.0118
     17 N          90.2696   48.1131  266.3141 N.pl3   1  LIG1       -0.3118
     18 C          89.7134   47.3365  265.2841 C.ar    1  LIG1        0.0748
     19 C          90.4132   47.1201  264.0930 C.ar    1  LIG1        0.0505
     20 N          89.9020   46.4455  263.0351 N.ar    1  LIG1       -0.2613
     21 C          88.6551   45.9413  263.1596 C.ar    1  LIG1        0.0295
     22 C          87.8824   46.0848  264.3154 C.ar    1  LIG1       -0.0169
     23 C          88.4203   46.7966  265.3977 C.ar    1  LIG1        0.1118
     24 S          87.4762   46.8845  266.9224 S.O2    1  LIG1       -0.0040
     25 O          86.1286   46.4001  266.6639 O.2     1  LIG1       -0.1696
     26 O          87.6817   48.2276  267.4906 O.2     1  LIG1       -0.1696
     27 C          88.3690   45.6249  268.0119 C.3     1  LIG1        0.0597
     28 O          95.9690   53.8069  267.7995 O.3     1  LIG1       -0.4057
     29 C          96.3470   55.0729  268.3310 C.3     1  LIG1        0.5752
     30 F          97.3096   55.5398  267.5396 F       1  LIG1       -0.1328
     31 F          95.3611   55.9453  268.3259 F       1  LIG1       -0.1328
     32 F          96.7836   54.9621  269.5556 F       1  LIG1       -0.1328
     33 H          92.2832   46.3844  266.0477 H       1  LIG1        0.0658
     34 H          91.2070   50.2776  267.4316 H       1  LIG1        0.0643
     35 H          97.4740   48.1497  268.0475 H       1  LIG1        0.0845
     36 H          96.7752   45.9403  267.0447 H       1  LIG1        0.0845
     37 H          91.9978   51.0151  269.7584 H       1  LIG1        0.0624
     38 H          92.5604   53.1755  270.8094 H       1  LIG1        0.0619
     39 H          94.4210   54.4921  269.9893 H       1  LIG1        0.0654
     40 H          95.2451   51.5271  266.9975 H       1  LIG1        0.0660
     41 H          89.5686   48.5877  266.8693 H       1  LIG1        0.1522
     42 H          91.4091   47.5207  263.9742 H       1  LIG1        0.0849
     43 H          88.2678   45.3844  262.3197 H       1  LIG1        0.0830
     44 H          86.9024   45.6345  264.3838 H       1  LIG1        0.0652
     45 H          87.8428   45.5077  268.9515 H       1  LIG1        0.0468
     46 H          89.3884   45.9738  268.1659 H       1  LIG1        0.0468
     47 H          88.3746   44.6716  267.4801 H       1  LIG1        0.0468
@<TRIPOS>BOND
     1     1     4   ar
     2     1     6   ar
     3     1    11    1
     4     2     3   ar
     5     2     5   ar
     6     2    33    1
     7     3     4   ar
     8     3    17    1
     9     4    34    1
    10     5     6   ar
    11     5    10   ar
    12     6     7   ar
    13     7     8   ar
    14     8     9   ar
    15     8    35    1
    16     9    10   ar
    17     9    36    1
    18    11    12   ar
    19    11    16   ar
    20    12    13   ar
    21    12    37    1
    22    13    14   ar
    23    13    38    1
    24    14    15   ar
    25    14    39    1
    26    15    16   ar
    27    15    28    1
    28    16    40    1
    29    17    18    1
    30    17    41    1
    31    18    19   ar
    32    18    23   ar
    33    19    20   ar
    34    19    42    1
    35    20    21   ar
    36    21    22   ar
    37    21    43    1
    38    22    23   ar
    39    22    44    1
    40    23    24    1
    41    24    25    2
    42    24    26    2
    43    24    27    1
    44    27    45    1
    45    27    46    1
    46    27    47    1
    47    28    29    1
    48    29    30    1
    49    29    31    1
    50    29    32    1
