41
 OpenBabel02152110423D
Structure written by MMmdl.
 47 50  0  0  1  0  0  0  0  0999 V2000
   93.2782   49.7896  267.6853 C   0  0  0  0  0  0  0  0  0  0  0  0
   92.5645   47.3279  266.4843 C   0  0  0  0  0  0  0  0  0  0  0  0
   91.6114   48.3242  266.6766 C   0  0  0  0  0  0  0  0  0  0  0  0
   91.9687   49.5189  267.2814 C   0  0  0  0  0  0  0  0  0  0  0  0
   93.8940   47.5285  266.9239 C   0  0  0  0  0  0  0  0  0  0  0  0
   94.2716   48.7689  267.5195 C   0  0  0  0  0  0  0  0  0  0  0  0
   95.5595   48.9594  267.9444 N   0  0  0  0  0  0  0  0  0  0  0  0
   96.4507   47.9529  267.7597 C   0  0  0  0  0  0  0  0  0  0  0  0
   96.0667   46.7376  267.2079 C   0  0  0  0  0  0  0  0  0  0  0  0
   94.7985   46.5177  266.7833 N   0  0  0  0  0  0  0  0  0  0  0  0
   93.5961   51.0950  268.3176 C   0  0  0  0  0  0  0  0  0  0  0  0
   92.8354   51.5850  269.3805 C   0  0  0  0  0  0  0  0  0  0  0  0
   93.1459   52.8020  269.9772 C   0  0  0  0  0  0  0  0  0  0  0  0
   94.2185   53.5485  269.5127 C   0  0  0  0  0  0  0  0  0  0  0  0
   94.9646   53.1033  268.4055 C   0  0  0  0  0  0  0  0  0  0  0  0
   94.6620   51.8657  267.8407 C   0  0  0  0  0  0  0  0  0  0  0  0
   90.2696   48.1131  266.3141 N   0  0  0  0  0  0  0  0  0  0  0  0
   89.7134   47.3365  265.2841 C   0  0  0  0  0  0  0  0  0  0  0  0
   90.4132   47.1201  264.0930 C   0  0  0  0  0  0  0  0  0  0  0  0
   89.9020   46.4455  263.0351 N   0  0  0  0  0  0  0  0  0  0  0  0
   88.6551   45.9413  263.1596 C   0  0  0  0  0  0  0  0  0  0  0  0
   87.8824   46.0848  264.3154 C   0  0  0  0  0  0  0  0  0  0  0  0
   88.4203   46.7966  265.3977 C   0  0  0  0  0  0  0  0  0  0  0  0
   87.4762   46.8845  266.9224 S   0  0  0  0  0  0  0  0  0  0  0  0
   86.1286   46.4001  266.6639 O   0  0  0  0  0  0  0  0  0  0  0  0
   87.6817   48.2276  267.4906 O   0  0  0  0  0  0  0  0  0  0  0  0
   88.3690   45.6249  268.0119 C   0  0  0  0  0  0  0  0  0  0  0  0
   95.9690   53.8069  267.7995 O   0  0  0  0  0  0  0  0  0  0  0  0
   96.3470   55.0729  268.3310 C   0  0  0  0  0  0  0  0  0  0  0  0
   97.3096   55.5398  267.5396 F   0  0  0  0  0  0  0  0  0  0  0  0
   95.3611   55.9453  268.3259 F   0  0  0  0  0  0  0  0  0  0  0  0
   96.7836   54.9621  269.5556 F   0  0  0  0  0  0  0  0  0  0  0  0
   92.2832   46.3844  266.0477 H   0  0  0  0  0  0  0  0  0  0  0  0
   91.2070   50.2776  267.4316 H   0  0  0  0  0  0  0  0  0  0  0  0
   97.4740   48.1497  268.0475 H   0  0  0  0  0  0  0  0  0  0  0  0
   96.7752   45.9403  267.0447 H   0  0  0  0  0  0  0  0  0  0  0  0
   91.9978   51.0151  269.7584 H   0  0  0  0  0  0  0  0  0  0  0  0
   92.5604   53.1755  270.8094 H   0  0  0  0  0  0  0  0  0  0  0  0
   94.4210   54.4921  269.9893 H   0  0  0  0  0  0  0  0  0  0  0  0
   95.2451   51.5271  266.9975 H   0  0  0  0  0  0  0  0  0  0  0  0
   89.5686   48.5877  266.8693 H   0  0  0  0  0  0  0  0  0  0  0  0
   91.4091   47.5207  263.9742 H   0  0  0  0  0  0  0  0  0  0  0  0
   88.2678   45.3844  262.3197 H   0  0  0  0  0  0  0  0  0  0  0  0
   86.9024   45.6345  264.3838 H   0  0  0  0  0  0  0  0  0  0  0  0
   87.8428   45.5077  268.9515 H   0  0  0  0  0  0  0  0  0  0  0  0
   89.3884   45.9738  268.1659 H   0  0  0  0  0  0  0  0  0  0  0  0
   88.3746   44.6716  267.4801 H   0  0  0  0  0  0  0  0  0  0  0  0
  1  4  1  0  0  0  0
  1  6  2  0  0  0  0
  1 11  1  0  0  0  0
  2  3  1  0  0  0  0
  2  5  2  0  0  0  0
  2 33  1  0  0  0  0
  3  4  2  0  0  0  0
  3 17  1  0  0  0  0
  4 34  1  0  0  0  0
  5  6  1  0  0  0  0
  5 10  1  0  0  0  0
  6  7  1  0  0  0  0
  7  8  2  0  0  0  0
  8  9  1  0  0  0  0
  8 35  1  0  0  0  0
  9 10  2  0  0  0  0
  9 36  1  0  0  0  0
 11 12  2  0  0  0  0
 11 16  1  0  0  0  0
 12 13  1  0  0  0  0
 12 37  1  0  0  0  0
 13 14  2  0  0  0  0
 13 38  1  0  0  0  0
 14 15  1  0  0  0  0
 14 39  1  0  0  0  0
 15 16  2  0  0  0  0
 15 28  1  0  0  0  0
 16 40  1  0  0  0  0
 17 18  1  0  0  0  0
 17 41  1  0  0  0  0
 18 19  2  0  0  0  0
 18 23  1  0  0  0  0
 19 20  1  0  0  0  0
 19 42  1  0  0  0  0
 20 21  2  0  0  0  0
 21 22  1  0  0  0  0
 21 43  1  0  0  0  0
 22 23  2  0  0  0  0
 22 44  1  0  0  0  0
 23 24  1  0  0  0  0
 24 25  2  0  0  0  0
 24 26  2  0  0  0  0
 24 27  1  0  0  0  0
 27 45  1  0  0  0  0
 27 46  1  0  0  0  0
 27 47  1  0  0  0  0
 28 29  1  0  0  0  0
 29 30  1  0  0  0  0
 29 31  1  0  0  0  0
 29 32  1  0  0  0  0
M  END
>  <ID>
41

>  <IC50[uM]>
3.844

$$$$
