42
 OpenBabel02152110423D
Structure written by MMmdl.
 47 50  0  0  1  0  0  0  0  0999 V2000
   93.2875   49.7838  267.6770 C   0  0  0  0  0  0  0  0  0  0  0  0
   92.5724   47.3125  266.4966 C   0  0  0  0  0  0  0  0  0  0  0  0
   91.6143   48.3091  266.6745 C   0  0  0  0  0  0  0  0  0  0  0  0
   91.9734   49.5126  267.2693 C   0  0  0  0  0  0  0  0  0  0  0  0
   93.8983   47.5150  266.9402 C   0  0  0  0  0  0  0  0  0  0  0  0
   94.2747   48.7631  267.5237 C   0  0  0  0  0  0  0  0  0  0  0  0
   95.5632   48.9601  267.9551 N   0  0  0  0  0  0  0  0  0  0  0  0
   96.4531   47.9523  267.7789 C   0  0  0  0  0  0  0  0  0  0  0  0
   96.0721   46.7327  267.2263 C   0  0  0  0  0  0  0  0  0  0  0  0
   94.8009   46.4988  266.8238 N   0  0  0  0  0  0  0  0  0  0  0  0
   93.5911   51.0854  268.3137 C   0  0  0  0  0  0  0  0  0  0  0  0
   92.8469   51.5645  269.4014 C   0  0  0  0  0  0  0  0  0  0  0  0
   93.1400   52.7949  269.9867 C   0  0  0  0  0  0  0  0  0  0  0  0
   94.6339   51.8738  267.8239 C   0  0  0  0  0  0  0  0  0  0  0  0
   90.2801   48.1021  266.3129 N   0  0  0  0  0  0  0  0  0  0  0  0
   89.7132   47.3295  265.2851 C   0  0  0  0  0  0  0  0  0  0  0  0
   90.4095   47.1212  264.0895 C   0  0  0  0  0  0  0  0  0  0  0  0
   89.8943   46.4354  263.0351 N   0  0  0  0  0  0  0  0  0  0  0  0
   88.6421   45.9295  263.1649 C   0  0  0  0  0  0  0  0  0  0  0  0
   87.8836   46.0722  264.3230 C   0  0  0  0  0  0  0  0  0  0  0  0
   88.4211   46.7936  265.3951 C   0  0  0  0  0  0  0  0  0  0  0  0
   87.4795   46.9124  266.9240 S   0  0  0  0  0  0  0  0  0  0  0  0
   86.1188   46.4328  266.6652 O   0  0  0  0  0  0  0  0  0  0  0  0
   87.6945   48.2548  267.4760 O   0  0  0  0  0  0  0  0  0  0  0  0
   88.3552   45.6686  268.0255 C   0  0  0  0  0  0  0  0  0  0  0  0
   94.9298   53.1047  268.3962 C   0  0  0  0  0  0  0  0  0  0  0  0
   94.2024   53.5588  269.5010 C   0  0  0  0  0  0  0  0  0  0  0  0
   96.0833   55.7215  268.3802 C   0  0  0  0  0  0  0  0  0  0  0  0
   96.1817   54.0755  267.6506 S   0  0  0  0  0  0  0  0  0  0  0  0
   92.2931   46.3625  266.0674 H   0  0  0  0  0  0  0  0  0  0  0  0
   91.2162   50.2704  267.4061 H   0  0  0  0  0  0  0  0  0  0  0  0
   97.4741   48.1517  268.0664 H   0  0  0  0  0  0  0  0  0  0  0  0
   96.7829   45.9289  267.0901 H   0  0  0  0  0  0  0  0  0  0  0  0
   92.0296   50.9757  269.8043 H   0  0  0  0  0  0  0  0  0  0  0  0
   92.5765   53.1471  270.8375 H   0  0  0  0  0  0  0  0  0  0  0  0
   95.1927   51.5424  266.9621 H   0  0  0  0  0  0  0  0  0  0  0  0
   89.5863   48.5720  266.8822 H   0  0  0  0  0  0  0  0  0  0  0  0
   91.4058   47.5156  263.9586 H   0  0  0  0  0  0  0  0  0  0  0  0
   88.2563   45.3792  262.3224 H   0  0  0  0  0  0  0  0  0  0  0  0
   86.9089   45.6181  264.3929 H   0  0  0  0  0  0  0  0  0  0  0  0
   87.8313   45.6086  268.9799 H   0  0  0  0  0  0  0  0  0  0  0  0
   89.3842   45.9944  268.1686 H   0  0  0  0  0  0  0  0  0  0  0  0
   88.3348   44.7037  267.5293 H   0  0  0  0  0  0  0  0  0  0  0  0
   94.4208   54.5069  269.9694 H   0  0  0  0  0  0  0  0  0  0  0  0
   96.7764   56.3647  267.8329 H   0  0  0  0  0  0  0  0  0  0  0  0
   96.3260   55.6602  269.4465 H   0  0  0  0  0  0  0  0  0  0  0  0
   95.0813   56.1420  268.2849 H   0  0  0  0  0  0  0  0  0  0  0  0
  1  4  1  0  0  0  0
  1  6  2  0  0  0  0
  1 11  1  0  0  0  0
  2  3  1  0  0  0  0
  2  5  2  0  0  0  0
  2 30  1  0  0  0  0
  3  4  2  0  0  0  0
  3 15  1  0  0  0  0
  4 31  1  0  0  0  0
  5  6  1  0  0  0  0
  5 10  1  0  0  0  0
  6  7  1  0  0  0  0
  7  8  2  0  0  0  0
  8  9  1  0  0  0  0
  8 32  1  0  0  0  0
  9 10  2  0  0  0  0
  9 33  1  0  0  0  0
 11 12  2  0  0  0  0
 11 14  1  0  0  0  0
 12 13  1  0  0  0  0
 12 34  1  0  0  0  0
 13 27  2  0  0  0  0
 13 35  1  0  0  0  0
 14 26  2  0  0  0  0
 14 36  1  0  0  0  0
 15 16  1  0  0  0  0
 15 37  1  0  0  0  0
 16 17  2  0  0  0  0
 16 21  1  0  0  0  0
 17 18  1  0  0  0  0
 17 38  1  0  0  0  0
 18 19  2  0  0  0  0
 19 20  1  0  0  0  0
 19 39  1  0  0  0  0
 20 21  2  0  0  0  0
 20 40  1  0  0  0  0
 21 22  1  0  0  0  0
 22 23  2  0  0  0  0
 22 24  2  0  0  0  0
 22 25  1  0  0  0  0
 25 41  1  0  0  0  0
 25 42  1  0  0  0  0
 25 43  1  0  0  0  0
 26 27  1  0  0  0  0
 26 29  1  0  0  0  0
 27 44  1  0  0  0  0
 28 29  1  0  0  0  0
 28 45  1  0  0  0  0
 28 46  1  0  0  0  0
 28 47  1  0  0  0  0
M  END
>  <ID>
42

>  <IC50[uM]>
0.622

$$$$
