@<TRIPOS>MOLECULE
43
 43 46 0 0 0
SMALL
GASTEIGER
****
Structure written by MMmdl.
@<TRIPOS>ATOM
      1 C          93.2801   49.7948  267.6926 C.ar    1  LIG1        0.0113
      2 C          92.5697   47.3273  266.4879 C.ar    1  LIG1       -0.0130
      3 C          91.6101   48.3227  266.6794 C.ar    1  LIG1        0.0341
      4 C          91.9699   49.5231  267.2872 C.ar    1  LIG1       -0.0307
      5 C          93.8968   47.5279  266.9313 C.ar    1  LIG1        0.0915
      6 C          94.2695   48.7730  267.5260 C.ar    1  LIG1        0.0969
      7 N          95.5576   48.9586  267.9485 N.ar    1  LIG1       -0.2513
      8 C          96.4495   47.9531  267.7601 C.ar    1  LIG1        0.0464
      9 C          96.0662   46.7381  267.2124 C.ar    1  LIG1        0.0464
     10 N          94.7965   46.5169  266.7871 N.ar    1  LIG1       -0.2519
     11 C          93.5926   51.1080  268.3254 C.ar    1  LIG1       -0.0147
     12 C          93.0431   51.4518  269.5675 C.ar    1  LIG1       -0.0539
     13 C          93.3489   52.6803  270.1568 C.ar    1  LIG1       -0.0601
     14 C          94.2002   53.5732  269.5104 C.ar    1  LIG1       -0.0477
     15 C          94.7102   53.2574  268.2528 C.ar    1  LIG1        0.0185
     16 C          94.4268   52.0279  267.6749 C.ar    1  LIG1       -0.0400
     17 N          90.2713   48.1126  266.3137 N.pl3   1  LIG1       -0.3118
     18 C          89.7145   47.3382  265.2871 C.ar    1  LIG1        0.0748
     19 C          90.4125   47.1278  264.0926 C.ar    1  LIG1        0.0505
     20 N          89.9049   46.4459  263.0330 N.ar    1  LIG1       -0.2613
     21 C          88.6524   45.9395  263.1609 C.ar    1  LIG1        0.0295
     22 C          87.8830   46.0841  264.3170 C.ar    1  LIG1       -0.0169
     23 C          88.4216   46.7951  265.3953 C.ar    1  LIG1        0.1118
     24 S          87.4809   46.8875  266.9255 S.O2    1  LIG1       -0.0040
     25 O          86.1229   46.4026  266.6623 O.2     1  LIG1       -0.1696
     26 O          87.6858   48.2236  267.4941 O.2     1  LIG1       -0.1696
     27 C          88.3659   45.6223  267.9978 C.3     1  LIG1        0.0597
     28 BR         95.7702   54.5153  267.3088 Br      1  LIG1       -0.0503
     29 H          92.2845   46.3806  266.0483 H       1  LIG1        0.0658
     30 H          91.2071   50.2769  267.4318 H       1  LIG1        0.0643
     31 H          97.4743   48.1503  268.0502 H       1  LIG1        0.0845
     32 H          96.7761   45.9410  267.0505 H       1  LIG1        0.0845
     33 H          92.3934   50.7654  270.0803 H       1  LIG1        0.0624
     34 H          92.9287   52.9349  271.1181 H       1  LIG1        0.0618
     35 H          94.4175   54.5360  269.9608 H       1  LIG1        0.0629
     36 H          94.8274   51.7986  266.6985 H       1  LIG1        0.0635
     37 H          89.5702   48.5863  266.8724 H       1  LIG1        0.1522
     38 H          91.4072   47.5171  263.9719 H       1  LIG1        0.0849
     39 H          88.2658   45.3835  262.3188 H       1  LIG1        0.0830
     40 H          86.9009   45.6304  264.3829 H       1  LIG1        0.0652
     41 H          87.8375   45.5096  268.9490 H       1  LIG1        0.0468
     42 H          89.3862   45.9688  268.1678 H       1  LIG1        0.0468
     43 H          88.3764   44.6703  267.4706 H       1  LIG1        0.0468
@<TRIPOS>BOND
     1     1     4   ar
     2     1     6   ar
     3     1    11    1
     4     2     3   ar
     5     2     5   ar
     6     2    29    1
     7     3     4   ar
     8     3    17    1
     9     4    30    1
    10     5     6   ar
    11     5    10   ar
    12     6     7   ar
    13     7     8   ar
    14     8     9   ar
    15     8    31    1
    16     9    10   ar
    17     9    32    1
    18    11    12   ar
    19    11    16   ar
    20    12    13   ar
    21    12    33    1
    22    13    14   ar
    23    13    34    1
    24    14    15   ar
    25    14    35    1
    26    15    16   ar
    27    15    28    1
    28    16    36    1
    29    17    18    1
    30    17    37    1
    31    18    19   ar
    32    18    23   ar
    33    19    20   ar
    34    19    38    1
    35    20    21   ar
    36    21    22   ar
    37    21    39    1
    38    22    23   ar
    39    22    40    1
    40    23    24    1
    41    24    25    2
    42    24    26    2
    43    24    27    1
    44    27    41    1
    45    27    42    1
    46    27    43    1
