43
 OpenBabel02152110423D
Structure written by MMmdl.
 43 46  0  0  1  0  0  0  0  0999 V2000
   93.2801   49.7948  267.6926 C   0  0  0  0  0  0  0  0  0  0  0  0
   92.5697   47.3273  266.4879 C   0  0  0  0  0  0  0  0  0  0  0  0
   91.6101   48.3227  266.6794 C   0  0  0  0  0  0  0  0  0  0  0  0
   91.9699   49.5231  267.2872 C   0  0  0  0  0  0  0  0  0  0  0  0
   93.8968   47.5279  266.9313 C   0  0  0  0  0  0  0  0  0  0  0  0
   94.2695   48.7730  267.5260 C   0  0  0  0  0  0  0  0  0  0  0  0
   95.5576   48.9586  267.9485 N   0  0  0  0  0  0  0  0  0  0  0  0
   96.4495   47.9531  267.7601 C   0  0  0  0  0  0  0  0  0  0  0  0
   96.0662   46.7381  267.2124 C   0  0  0  0  0  0  0  0  0  0  0  0
   94.7965   46.5169  266.7871 N   0  0  0  0  0  0  0  0  0  0  0  0
   93.5926   51.1080  268.3254 C   0  0  0  0  0  0  0  0  0  0  0  0
   93.0431   51.4518  269.5675 C   0  0  0  0  0  0  0  0  0  0  0  0
   93.3489   52.6803  270.1568 C   0  0  0  0  0  0  0  0  0  0  0  0
   94.2002   53.5732  269.5104 C   0  0  0  0  0  0  0  0  0  0  0  0
   94.7102   53.2574  268.2528 C   0  0  0  0  0  0  0  0  0  0  0  0
   94.4268   52.0279  267.6749 C   0  0  0  0  0  0  0  0  0  0  0  0
   90.2713   48.1126  266.3137 N   0  0  0  0  0  0  0  0  0  0  0  0
   89.7145   47.3382  265.2871 C   0  0  0  0  0  0  0  0  0  0  0  0
   90.4125   47.1278  264.0926 C   0  0  0  0  0  0  0  0  0  0  0  0
   89.9049   46.4459  263.0330 N   0  0  0  0  0  0  0  0  0  0  0  0
   88.6524   45.9395  263.1609 C   0  0  0  0  0  0  0  0  0  0  0  0
   87.8830   46.0841  264.3170 C   0  0  0  0  0  0  0  0  0  0  0  0
   88.4216   46.7951  265.3953 C   0  0  0  0  0  0  0  0  0  0  0  0
   87.4809   46.8875  266.9255 S   0  0  0  0  0  0  0  0  0  0  0  0
   86.1229   46.4026  266.6623 O   0  0  0  0  0  0  0  0  0  0  0  0
   87.6858   48.2236  267.4941 O   0  0  0  0  0  0  0  0  0  0  0  0
   88.3659   45.6223  267.9978 C   0  0  0  0  0  0  0  0  0  0  0  0
   95.7702   54.5153  267.3088 Br  0  0  0  0  0  0  0  0  0  0  0  0
   92.2845   46.3806  266.0483 H   0  0  0  0  0  0  0  0  0  0  0  0
   91.2071   50.2769  267.4318 H   0  0  0  0  0  0  0  0  0  0  0  0
   97.4743   48.1503  268.0502 H   0  0  0  0  0  0  0  0  0  0  0  0
   96.7761   45.9410  267.0505 H   0  0  0  0  0  0  0  0  0  0  0  0
   92.3934   50.7654  270.0803 H   0  0  0  0  0  0  0  0  0  0  0  0
   92.9287   52.9349  271.1181 H   0  0  0  0  0  0  0  0  0  0  0  0
   94.4175   54.5360  269.9608 H   0  0  0  0  0  0  0  0  0  0  0  0
   94.8274   51.7986  266.6985 H   0  0  0  0  0  0  0  0  0  0  0  0
   89.5702   48.5863  266.8724 H   0  0  0  0  0  0  0  0  0  0  0  0
   91.4072   47.5171  263.9719 H   0  0  0  0  0  0  0  0  0  0  0  0
   88.2658   45.3835  262.3188 H   0  0  0  0  0  0  0  0  0  0  0  0
   86.9009   45.6304  264.3829 H   0  0  0  0  0  0  0  0  0  0  0  0
   87.8375   45.5096  268.9490 H   0  0  0  0  0  0  0  0  0  0  0  0
   89.3862   45.9688  268.1678 H   0  0  0  0  0  0  0  0  0  0  0  0
   88.3764   44.6703  267.4706 H   0  0  0  0  0  0  0  0  0  0  0  0
  1  4  1  0  0  0  0
  1  6  2  0  0  0  0
  1 11  1  0  0  0  0
  2  3  1  0  0  0  0
  2  5  2  0  0  0  0
  2 29  1  0  0  0  0
  3  4  2  0  0  0  0
  3 17  1  0  0  0  0
  4 30  1  0  0  0  0
  5  6  1  0  0  0  0
  5 10  1  0  0  0  0
  6  7  1  0  0  0  0
  7  8  2  0  0  0  0
  8  9  1  0  0  0  0
  8 31  1  0  0  0  0
  9 10  2  0  0  0  0
  9 32  1  0  0  0  0
 11 12  2  0  0  0  0
 11 16  1  0  0  0  0
 12 13  1  0  0  0  0
 12 33  1  0  0  0  0
 13 14  2  0  0  0  0
 13 34  1  0  0  0  0
 14 15  1  0  0  0  0
 14 35  1  0  0  0  0
 15 16  2  0  0  0  0
 15 28  1  0  0  0  0
 16 36  1  0  0  0  0
 17 18  1  0  0  0  0
 17 37  1  0  0  0  0
 18 19  2  0  0  0  0
 18 23  1  0  0  0  0
 19 20  1  0  0  0  0
 19 38  1  0  0  0  0
 20 21  2  0  0  0  0
 21 22  1  0  0  0  0
 21 39  1  0  0  0  0
 22 23  2  0  0  0  0
 22 40  1  0  0  0  0
 23 24  1  0  0  0  0
 24 25  2  0  0  0  0
 24 26  2  0  0  0  0
 24 27  1  0  0  0  0
 27 41  1  0  0  0  0
 27 42  1  0  0  0  0
 27 43  1  0  0  0  0
M  END
>  <ID>
43

>  <IC50[uM]>
1.373

$$$$
