44
 OpenBabel02152110423D
Structure written by MMmdl.
 43 46  0  0  1  0  0  0  0  0999 V2000
   93.2882   49.7977  267.6708 C   0  0  0  0  0  0  0  0  0  0  0  0
   92.5637   47.3335  266.4846 C   0  0  0  0  0  0  0  0  0  0  0  0
   91.6081   48.3294  266.6725 C   0  0  0  0  0  0  0  0  0  0  0  0
   91.9709   49.5300  267.2741 C   0  0  0  0  0  0  0  0  0  0  0  0
   93.8914   47.5333  266.9162 C   0  0  0  0  0  0  0  0  0  0  0  0
   94.2731   48.7764  267.5081 C   0  0  0  0  0  0  0  0  0  0  0  0
   95.5591   48.9636  267.9347 N   0  0  0  0  0  0  0  0  0  0  0  0
   96.4502   47.9543  267.7521 C   0  0  0  0  0  0  0  0  0  0  0  0
   96.0585   46.7408  267.1942 C   0  0  0  0  0  0  0  0  0  0  0  0
   94.7973   46.5201  266.7745 N   0  0  0  0  0  0  0  0  0  0  0  0
   93.5906   51.0998  268.3213 C   0  0  0  0  0  0  0  0  0  0  0  0
   94.5720   51.9589  267.8003 C   0  0  0  0  0  0  0  0  0  0  0  0
   94.8352   53.1750  268.4354 C   0  0  0  0  0  0  0  0  0  0  0  0
   94.1267   53.5136  269.5887 C   0  0  0  0  0  0  0  0  0  0  0  0
   93.1672   52.6613  270.1091 C   0  0  0  0  0  0  0  0  0  0  0  0
   92.8955   51.4622  269.4718 C   0  0  0  0  0  0  0  0  0  0  0  0
   90.2709   48.1207  266.3138 N   0  0  0  0  0  0  0  0  0  0  0  0
   89.7141   47.3423  265.2863 C   0  0  0  0  0  0  0  0  0  0  0  0
   90.4157   47.1268  264.0944 C   0  0  0  0  0  0  0  0  0  0  0  0
   89.9080   46.4425  263.0386 N   0  0  0  0  0  0  0  0  0  0  0  0
   88.6564   45.9405  263.1630 C   0  0  0  0  0  0  0  0  0  0  0  0
   87.8865   46.0900  264.3151 C   0  0  0  0  0  0  0  0  0  0  0  0
   88.4211   46.7995  265.3973 C   0  0  0  0  0  0  0  0  0  0  0  0
   87.4806   46.8874  266.9241 S   0  0  0  0  0  0  0  0  0  0  0  0
   86.1316   46.3840  266.6643 O   0  0  0  0  0  0  0  0  0  0  0  0
   87.6664   48.2322  267.4864 O   0  0  0  0  0  0  0  0  0  0  0  0
   88.3761   45.6411  268.0196 C   0  0  0  0  0  0  0  0  0  0  0  0
   94.4648   55.1135  270.5550 Br  0  0  0  0  0  0  0  0  0  0  0  0
   92.2813   46.3855  266.0517 H   0  0  0  0  0  0  0  0  0  0  0  0
   91.2136   50.2850  267.4304 H   0  0  0  0  0  0  0  0  0  0  0  0
   97.4700   48.1448  268.0461 H   0  0  0  0  0  0  0  0  0  0  0  0
   96.7717   45.9421  267.0347 H   0  0  0  0  0  0  0  0  0  0  0  0
   95.1086   51.6832  266.9117 H   0  0  0  0  0  0  0  0  0  0  0  0
   95.5873   53.8378  268.0181 H   0  0  0  0  0  0  0  0  0  0  0  0
   92.6500   52.9364  271.0211 H   0  0  0  0  0  0  0  0  0  0  0  0
   92.1555   50.8050  269.8997 H   0  0  0  0  0  0  0  0  0  0  0  0
   89.5786   48.6031  266.8763 H   0  0  0  0  0  0  0  0  0  0  0  0
   91.4089   47.5246  263.9655 H   0  0  0  0  0  0  0  0  0  0  0  0
   88.2700   45.3879  262.3187 H   0  0  0  0  0  0  0  0  0  0  0  0
   86.9013   45.6455  264.3724 H   0  0  0  0  0  0  0  0  0  0  0  0
   87.8571   45.5438  268.9719 H   0  0  0  0  0  0  0  0  0  0  0  0
   89.4007   45.9839  268.1650 H   0  0  0  0  0  0  0  0  0  0  0  0
   88.3665   44.6742  267.5195 H   0  0  0  0  0  0  0  0  0  0  0  0
  1  4  1  0  0  0  0
  1  6  2  0  0  0  0
  1 11  1  0  0  0  0
  2  3  1  0  0  0  0
  2  5  2  0  0  0  0
  2 29  1  0  0  0  0
  3  4  2  0  0  0  0
  3 17  1  0  0  0  0
  4 30  1  0  0  0  0
  5  6  1  0  0  0  0
  5 10  1  0  0  0  0
  6  7  1  0  0  0  0
  7  8  2  0  0  0  0
  8  9  1  0  0  0  0
  8 31  1  0  0  0  0
  9 10  2  0  0  0  0
  9 32  1  0  0  0  0
 11 12  2  0  0  0  0
 11 16  1  0  0  0  0
 12 13  1  0  0  0  0
 12 33  1  0  0  0  0
 13 14  2  0  0  0  0
 13 34  1  0  0  0  0
 14 15  1  0  0  0  0
 14 28  1  0  0  0  0
 15 16  2  0  0  0  0
 15 35  1  0  0  0  0
 16 36  1  0  0  0  0
 17 18  1  0  0  0  0
 17 37  1  0  0  0  0
 18 19  2  0  0  0  0
 18 23  1  0  0  0  0
 19 20  1  0  0  0  0
 19 38  1  0  0  0  0
 20 21  2  0  0  0  0
 21 22  1  0  0  0  0
 21 39  1  0  0  0  0
 22 23  2  0  0  0  0
 22 40  1  0  0  0  0
 23 24  1  0  0  0  0
 24 25  2  0  0  0  0
 24 26  2  0  0  0  0
 24 27  1  0  0  0  0
 27 41  1  0  0  0  0
 27 42  1  0  0  0  0
 27 43  1  0  0  0  0
M  END
>  <ID>
44

>  <IC50[uM]>
0.051

$$$$
