@<TRIPOS>MOLECULE
46
 46 49 0 0 0
SMALL
GASTEIGER
****
Structure written by MMmdl.
@<TRIPOS>ATOM
      1 C          93.0435   49.8102  267.7232 C.ar    1  LIG1        0.0113
      2 C          92.5273   47.3329  266.4277 C.ar    1  LIG1       -0.0130
      3 C          91.5132   48.2719  266.5844 C.ar    1  LIG1        0.0341
      4 C          91.7777   49.4816  267.2148 C.ar    1  LIG1       -0.0307
      5 C          93.8278   47.6124  266.9005 C.ar    1  LIG1        0.0915
      6 C          94.1023   48.8575  267.5509 C.ar    1  LIG1        0.0969
      7 N          95.3591   49.1150  268.0280 N.ar    1  LIG1       -0.2513
      8 C          96.3141   48.1685  267.8581 C.ar    1  LIG1        0.0464
      9 C          96.0343   46.9585  267.2294 C.ar    1  LIG1        0.0464
     10 N          94.8031   46.6694  266.7522 N.ar    1  LIG1       -0.2519
     11 C          93.2132   51.0616  268.5051 C.ar    1  LIG1       -0.0157
     12 C          92.2931   51.3561  269.5168 C.ar    1  LIG1       -0.0534
     13 C          92.4526   52.4703  270.3218 C.ar    1  LIG1       -0.0495
     14 C          94.2814   51.9348  268.2910 C.ar    1  LIG1       -0.0534
     15 N          90.1979   47.9914  266.1949 N.pl3   1  LIG1       -0.3118
     16 C          89.6525   47.2396  265.1468 C.ar    1  LIG1        0.0748
     17 C          90.3884   46.9960  263.9809 C.ar    1  LIG1        0.0505
     18 N          89.8924   46.3415  262.9026 N.ar    1  LIG1       -0.2613
     19 C          88.6191   45.8808  262.9839 C.ar    1  LIG1        0.0295
     20 C          87.8123   46.0650  264.1082 C.ar    1  LIG1       -0.0169
     21 C          88.3278   46.7653  265.2033 C.ar    1  LIG1        0.1118
     22 S          87.2988   46.9262  266.6745 S.O2    1  LIG1       -0.0040
     23 O          87.6993   48.1509  267.3900 O.2     1  LIG1       -0.1696
     24 O          85.9037   46.7478  266.2781 O.2     1  LIG1       -0.1696
     25 C          87.8417   45.4403  267.6817 C.3     1  LIG1        0.0597
     26 C          94.4415   53.0681  269.0925 C.ar    1  LIG1       -0.0495
     27 C          93.5190   53.3406  270.1122 C.ar    1  LIG1        0.0548
     28 C          93.6396   54.5887  270.9796 C.3     1  LIG1        0.4174
     29 F          94.4603   55.4970  270.4478 F       1  LIG1       -0.1659
     30 F          92.4459   55.1254  271.1248 F       1  LIG1       -0.1659
     31 F          94.0622   54.3038  272.1875 F       1  LIG1       -0.1659
     32 H          92.3045   46.3748  265.9852 H       1  LIG1        0.0658
     33 H          90.9583   50.1717  267.3621 H       1  LIG1        0.0643
     34 H          97.3055   48.4008  268.2211 H       1  LIG1        0.0845
     35 H          96.7946   46.1974  267.1006 H       1  LIG1        0.0845
     36 H          91.4475   50.7090  269.6907 H       1  LIG1        0.0624
     37 H          91.7245   52.6732  271.1027 H       1  LIG1        0.0623
     38 H          95.0049   51.7511  267.5041 H       1  LIG1        0.0624
     39 H          89.4779   48.4047  266.7789 H       1  LIG1        0.1522
     40 H          91.4061   47.3503  263.8938 H       1  LIG1        0.0849
     41 H          88.2509   45.3244  262.1374 H       1  LIG1        0.0830
     42 H          86.8142   45.6457  264.1398 H       1  LIG1        0.0652
     43 H          87.2648   45.4223  268.6016 H       1  LIG1        0.0468
     44 H          88.9040   45.5329  267.9000 H       1  LIG1        0.0468
     45 H          87.6573   44.5397  267.0941 H       1  LIG1        0.0468
     46 H          95.2741   53.7341  268.9078 H       1  LIG1        0.0623
@<TRIPOS>BOND
     1     1     4   ar
     2     1     6   ar
     3     1    11    1
     4     2     3   ar
     5     2     5   ar
     6     2    32    1
     7     3     4   ar
     8     3    15    1
     9     4    33    1
    10     5     6   ar
    11     5    10   ar
    12     6     7   ar
    13     7     8   ar
    14     8     9   ar
    15     8    34    1
    16     9    10   ar
    17     9    35    1
    18    11    12   ar
    19    11    14   ar
    20    12    13   ar
    21    12    36    1
    22    13    27   ar
    23    13    37    1
    24    14    26   ar
    25    14    38    1
    26    15    16    1
    27    15    39    1
    28    16    17   ar
    29    16    21   ar
    30    17    18   ar
    31    17    40    1
    32    18    19   ar
    33    19    20   ar
    34    19    41    1
    35    20    21   ar
    36    20    42    1
    37    21    22    1
    38    22    23    2
    39    22    24    2
    40    22    25    1
    41    25    43    1
    42    25    44    1
    43    25    45    1
    44    26    27   ar
    45    26    46    1
    46    27    28    1
    47    28    29    1
    48    28    30    1
    49    28    31    1
