46
 OpenBabel02152110423D
Structure written by MMmdl.
 46 49  0  0  1  0  0  0  0  0999 V2000
   93.0435   49.8102  267.7232 C   0  0  0  0  0  0  0  0  0  0  0  0
   92.5273   47.3329  266.4277 C   0  0  0  0  0  0  0  0  0  0  0  0
   91.5132   48.2719  266.5844 C   0  0  0  0  0  0  0  0  0  0  0  0
   91.7777   49.4816  267.2148 C   0  0  0  0  0  0  0  0  0  0  0  0
   93.8278   47.6124  266.9005 C   0  0  0  0  0  0  0  0  0  0  0  0
   94.1023   48.8575  267.5509 C   0  0  0  0  0  0  0  0  0  0  0  0
   95.3591   49.1150  268.0280 N   0  0  0  0  0  0  0  0  0  0  0  0
   96.3141   48.1685  267.8581 C   0  0  0  0  0  0  0  0  0  0  0  0
   96.0343   46.9585  267.2294 C   0  0  0  0  0  0  0  0  0  0  0  0
   94.8031   46.6694  266.7522 N   0  0  0  0  0  0  0  0  0  0  0  0
   93.2132   51.0616  268.5051 C   0  0  0  0  0  0  0  0  0  0  0  0
   92.2931   51.3561  269.5168 C   0  0  0  0  0  0  0  0  0  0  0  0
   92.4526   52.4703  270.3218 C   0  0  0  0  0  0  0  0  0  0  0  0
   94.2814   51.9348  268.2910 C   0  0  0  0  0  0  0  0  0  0  0  0
   90.1979   47.9914  266.1949 N   0  0  0  0  0  0  0  0  0  0  0  0
   89.6525   47.2396  265.1468 C   0  0  0  0  0  0  0  0  0  0  0  0
   90.3884   46.9960  263.9809 C   0  0  0  0  0  0  0  0  0  0  0  0
   89.8924   46.3415  262.9026 N   0  0  0  0  0  0  0  0  0  0  0  0
   88.6191   45.8808  262.9839 C   0  0  0  0  0  0  0  0  0  0  0  0
   87.8123   46.0650  264.1082 C   0  0  0  0  0  0  0  0  0  0  0  0
   88.3278   46.7653  265.2033 C   0  0  0  0  0  0  0  0  0  0  0  0
   87.2988   46.9262  266.6745 S   0  0  0  0  0  0  0  0  0  0  0  0
   87.6993   48.1509  267.3900 O   0  0  0  0  0  0  0  0  0  0  0  0
   85.9037   46.7478  266.2781 O   0  0  0  0  0  0  0  0  0  0  0  0
   87.8417   45.4403  267.6817 C   0  0  0  0  0  0  0  0  0  0  0  0
   94.4415   53.0681  269.0925 C   0  0  0  0  0  0  0  0  0  0  0  0
   93.5190   53.3406  270.1122 C   0  0  0  0  0  0  0  0  0  0  0  0
   93.6396   54.5887  270.9796 C   0  0  0  0  0  0  0  0  0  0  0  0
   94.4603   55.4970  270.4478 F   0  0  0  0  0  0  0  0  0  0  0  0
   92.4459   55.1254  271.1248 F   0  0  0  0  0  0  0  0  0  0  0  0
   94.0622   54.3038  272.1875 F   0  0  0  0  0  0  0  0  0  0  0  0
   92.3045   46.3748  265.9852 H   0  0  0  0  0  0  0  0  0  0  0  0
   90.9583   50.1717  267.3621 H   0  0  0  0  0  0  0  0  0  0  0  0
   97.3055   48.4008  268.2211 H   0  0  0  0  0  0  0  0  0  0  0  0
   96.7946   46.1974  267.1006 H   0  0  0  0  0  0  0  0  0  0  0  0
   91.4475   50.7090  269.6907 H   0  0  0  0  0  0  0  0  0  0  0  0
   91.7245   52.6732  271.1027 H   0  0  0  0  0  0  0  0  0  0  0  0
   95.0049   51.7511  267.5041 H   0  0  0  0  0  0  0  0  0  0  0  0
   89.4779   48.4047  266.7789 H   0  0  0  0  0  0  0  0  0  0  0  0
   91.4061   47.3503  263.8938 H   0  0  0  0  0  0  0  0  0  0  0  0
   88.2509   45.3244  262.1374 H   0  0  0  0  0  0  0  0  0  0  0  0
   86.8142   45.6457  264.1398 H   0  0  0  0  0  0  0  0  0  0  0  0
   87.2648   45.4223  268.6016 H   0  0  0  0  0  0  0  0  0  0  0  0
   88.9040   45.5329  267.9000 H   0  0  0  0  0  0  0  0  0  0  0  0
   87.6573   44.5397  267.0941 H   0  0  0  0  0  0  0  0  0  0  0  0
   95.2741   53.7341  268.9078 H   0  0  0  0  0  0  0  0  0  0  0  0
  1  4  1  0  0  0  0
  1  6  2  0  0  0  0
  1 11  1  0  0  0  0
  2  3  1  0  0  0  0
  2  5  2  0  0  0  0
  2 32  1  0  0  0  0
  3  4  2  0  0  0  0
  3 15  1  0  0  0  0
  4 33  1  0  0  0  0
  5  6  1  0  0  0  0
  5 10  1  0  0  0  0
  6  7  1  0  0  0  0
  7  8  2  0  0  0  0
  8  9  1  0  0  0  0
  8 34  1  0  0  0  0
  9 10  2  0  0  0  0
  9 35  1  0  0  0  0
 11 12  2  0  0  0  0
 11 14  1  0  0  0  0
 12 13  1  0  0  0  0
 12 36  1  0  0  0  0
 13 27  2  0  0  0  0
 13 37  1  0  0  0  0
 14 26  2  0  0  0  0
 14 38  1  0  0  0  0
 15 16  1  0  0  0  0
 15 39  1  0  0  0  0
 16 17  2  0  0  0  0
 16 21  1  0  0  0  0
 17 18  1  0  0  0  0
 17 40  1  0  0  0  0
 18 19  2  0  0  0  0
 19 20  1  0  0  0  0
 19 41  1  0  0  0  0
 20 21  2  0  0  0  0
 20 42  1  0  0  0  0
 21 22  1  0  0  0  0
 22 23  2  0  0  0  0
 22 24  2  0  0  0  0
 22 25  1  0  0  0  0
 25 43  1  0  0  0  0
 25 44  1  0  0  0  0
 25 45  1  0  0  0  0
 26 27  1  0  0  0  0
 26 46  1  0  0  0  0
 27 28  1  0  0  0  0
 28 29  1  0  0  0  0
 28 30  1  0  0  0  0
 28 31  1  0  0  0  0
M  END
>  <ID>
46

>  <IC50[uM]>
1.734

$$$$
