47
 OpenBabel02152110423D
Structure written by MMmdl.
 49 52  0  0  1  0  0  0  0  0999 V2000
   91.6083   48.3334  266.6744 C   0  0  0  0  0  0  0  0  0  0  0  0
   91.9770   49.5235  267.2704 C   0  0  0  0  0  0  0  0  0  0  0  0
   93.2888   49.7910  267.6682 C   0  0  0  0  0  0  0  0  0  0  0  0
   92.5616   47.3282  266.4823 C   0  0  0  0  0  0  0  0  0  0  0  0
   93.8964   47.5326  266.9181 C   0  0  0  0  0  0  0  0  0  0  0  0
   94.2747   48.7648  267.5031 C   0  0  0  0  0  0  0  0  0  0  0  0
   95.5582   48.9607  267.9334 N   0  0  0  0  0  0  0  0  0  0  0  0
   96.4450   47.9497  267.7524 C   0  0  0  0  0  0  0  0  0  0  0  0
   96.0650   46.7377  267.1987 C   0  0  0  0  0  0  0  0  0  0  0  0
   94.7919   46.5129  266.7751 N   0  0  0  0  0  0  0  0  0  0  0  0
   90.2641   48.1146  266.3110 N   0  0  0  0  0  0  0  0  0  0  0  0
   93.6036   51.0836  268.3078 C   0  0  0  0  0  0  0  0  0  0  0  0
   94.5822   51.9426  267.7946 C   0  0  0  0  0  0  0  0  0  0  0  0
   94.8311   53.1648  268.4135 C   0  0  0  0  0  0  0  0  0  0  0  0
   92.9139   51.4502  269.4609 C   0  0  0  0  0  0  0  0  0  0  0  0
   93.1683   52.6744  270.0993 C   0  0  0  0  0  0  0  0  0  0  0  0
   94.1199   53.5419  269.5356 C   0  0  0  0  0  0  0  0  0  0  0  0
   89.7151   47.3380  265.2859 C   0  0  0  0  0  0  0  0  0  0  0  0
   90.4155   47.1252  264.0962 C   0  0  0  0  0  0  0  0  0  0  0  0
   89.9070   46.4429  263.0387 N   0  0  0  0  0  0  0  0  0  0  0  0
   88.6553   45.9399  263.1634 C   0  0  0  0  0  0  0  0  0  0  0  0
   87.8846   46.0881  264.3216 C   0  0  0  0  0  0  0  0  0  0  0  0
   88.4235   46.7973  265.3979 C   0  0  0  0  0  0  0  0  0  0  0  0
   87.4819   46.9001  266.9260 S   0  0  0  0  0  0  0  0  0  0  0  0
   86.1337   46.3858  266.6708 O   0  0  0  0  0  0  0  0  0  0  0  0
   87.6636   48.2432  267.4756 O   0  0  0  0  0  0  0  0  0  0  0  0
   88.3745   45.6750  268.0367 C   0  0  0  0  0  0  0  0  0  0  0  0
   94.3537   54.9171  270.1798 C   0  0  0  0  0  0  0  0  0  0  0  0
   93.3263   55.3509  271.2282 C   0  0  0  0  0  0  0  0  0  0  0  0
   91.2153   50.2843  267.4284 H   0  0  0  0  0  0  0  0  0  0  0  0
   92.2808   46.3800  266.0508 H   0  0  0  0  0  0  0  0  0  0  0  0
   97.4713   48.1443  268.0472 H   0  0  0  0  0  0  0  0  0  0  0  0
   96.7709   45.9398  267.0374 H   0  0  0  0  0  0  0  0  0  0  0  0
   89.5797   48.5996  266.8736 H   0  0  0  0  0  0  0  0  0  0  0  0
   95.1217   51.6636  266.9061 H   0  0  0  0  0  0  0  0  0  0  0  0
   95.5765   53.8258  267.9781 H   0  0  0  0  0  0  0  0  0  0  0  0
   92.1686   50.7946  269.8997 H   0  0  0  0  0  0  0  0  0  0  0  0
   92.6234   52.9039  270.9908 H   0  0  0  0  0  0  0  0  0  0  0  0
   91.4081   47.5271  263.9663 H   0  0  0  0  0  0  0  0  0  0  0  0
   88.2685   45.3871  262.3178 H   0  0  0  0  0  0  0  0  0  0  0  0
   86.9030   45.6439  264.3753 H   0  0  0  0  0  0  0  0  0  0  0  0
   87.8677   45.6377  269.0039 H   0  0  0  0  0  0  0  0  0  0  0  0
   89.4074   46.0025  268.1649 H   0  0  0  0  0  0  0  0  0  0  0  0
   88.3453   44.6912  267.5702 H   0  0  0  0  0  0  0  0  0  0  0  0
   94.5106   55.6469  269.3723 H   0  0  0  0  0  0  0  0  0  0  0  0
   95.2617   54.9789  270.8007 H   0  0  0  0  0  0  0  0  0  0  0  0
   93.6635   56.3169  271.6265 H   0  0  0  0  0  0  0  0  0  0  0  0
   93.3324   54.6666  272.0834 H   0  0  0  0  0  0  0  0  0  0  0  0
   92.3099   55.4448  270.8648 H   0  0  0  0  0  0  0  0  0  0  0  0
  1  2  2  0  0  0  0
  1  4  1  0  0  0  0
  1 11  1  0  0  0  0
  2  3  1  0  0  0  0
  2 30  1  0  0  0  0
  3  6  2  0  0  0  0
  3 12  1  0  0  0  0
  4  5  2  0  0  0  0
  4 31  1  0  0  0  0
  5  6  1  0  0  0  0
  5 10  1  0  0  0  0
  6  7  1  0  0  0  0
  7  8  2  0  0  0  0
  8  9  1  0  0  0  0
  8 32  1  0  0  0  0
  9 10  2  0  0  0  0
  9 33  1  0  0  0  0
 11 18  1  0  0  0  0
 11 34  1  0  0  0  0
 12 13  2  0  0  0  0
 12 15  1  0  0  0  0
 13 14  1  0  0  0  0
 13 35  1  0  0  0  0
 14 17  2  0  0  0  0
 14 36  1  0  0  0  0
 15 16  2  0  0  0  0
 15 37  1  0  0  0  0
 16 17  1  0  0  0  0
 16 38  1  0  0  0  0
 17 28  1  0  0  0  0
 18 19  2  0  0  0  0
 18 23  1  0  0  0  0
 19 20  1  0  0  0  0
 19 39  1  0  0  0  0
 20 21  2  0  0  0  0
 21 22  1  0  0  0  0
 21 40  1  0  0  0  0
 22 23  2  0  0  0  0
 22 41  1  0  0  0  0
 23 24  1  0  0  0  0
 24 25  2  0  0  0  0
 24 26  2  0  0  0  0
 24 27  1  0  0  0  0
 27 42  1  0  0  0  0
 27 43  1  0  0  0  0
 27 44  1  0  0  0  0
 28 29  1  0  0  0  0
 28 45  1  0  0  0  0
 28 46  1  0  0  0  0
 29 47  1  0  0  0  0
 29 48  1  0  0  0  0
 29 49  1  0  0  0  0
M  END
>  <ID>
47

>  <IC50[uM]>
0.779

$$$$
