@<TRIPOS>MOLECULE
48
 47 50 0 0 0
SMALL
GASTEIGER
****
Structure written by MMmdl.
@<TRIPOS>ATOM
      1 C          93.2891   49.7935  267.6637 C.ar    1  LIG1        0.0113
      2 C          92.5608   47.3405  266.4814 C.ar    1  LIG1       -0.0130
      3 C          91.6077   48.3332  266.6707 C.ar    1  LIG1        0.0341
      4 C          91.9710   49.5295  267.2722 C.ar    1  LIG1       -0.0307
      5 C          93.8940   47.5337  266.9045 C.ar    1  LIG1        0.0915
      6 C          94.2774   48.7739  267.4976 C.ar    1  LIG1        0.0969
      7 N          95.5626   48.9634  267.9320 N.ar    1  LIG1       -0.2513
      8 C          96.4502   47.9550  267.7462 C.ar    1  LIG1        0.0464
      9 C          96.0648   46.7470  267.1768 C.ar    1  LIG1        0.0464
     10 N          94.7990   46.5280  266.7549 N.ar    1  LIG1       -0.2519
     11 C          93.5991   51.0971  268.3145 C.ar    1  LIG1       -0.0155
     12 C          94.5753   51.9457  267.7785 C.ar    1  LIG1       -0.0505
     13 C          94.8348   53.1676  268.4112 C.ar    1  LIG1       -0.0194
     14 C          94.1285   53.5217  269.5605 C.ar    1  LIG1        0.1201
     15 C          93.1788   52.6604  270.1058 C.ar    1  LIG1       -0.0194
     16 C          92.9139   51.4668  269.4673 C.ar    1  LIG1       -0.0505
     17 N          90.2715   48.1257  266.3145 N.pl3   1  LIG1       -0.3118
     18 C          89.7152   47.3459  265.2879 C.ar    1  LIG1        0.0748
     19 C          90.4202   47.1272  264.0964 C.ar    1  LIG1        0.0505
     20 N          89.9129   46.4356  263.0461 N.ar    1  LIG1       -0.2613
     21 C          88.6622   45.9374  263.1674 C.ar    1  LIG1        0.0295
     22 C          87.8909   46.0945  264.3162 C.ar    1  LIG1       -0.0169
     23 C          88.4225   46.8019  265.4011 C.ar    1  LIG1        0.1118
     24 S          87.4807   46.8954  266.9247 S.O2    1  LIG1       -0.0040
     25 O          86.1397   46.3717  266.6686 O.2     1  LIG1       -0.1696
     26 O          87.6511   48.2450  267.4794 O.2     1  LIG1       -0.1696
     27 C          88.3821   45.6757  268.0448 C.3     1  LIG1        0.0597
     28 O          94.3897   54.7426  270.1571 O.3     1  LIG1       -0.4951
     29 C          93.7287   55.0566  271.4029 C.3     1  LIG1        0.0788
     30 H          92.2928   46.4025  266.0289 H       1  LIG1        0.0658
     31 H          91.2152   50.2846  267.4485 H       1  LIG1        0.0643
     32 H          97.4706   48.1430  268.0444 H       1  LIG1        0.0845
     33 H          96.7729   45.9446  267.0248 H       1  LIG1        0.0845
     34 H          95.1201   51.6805  266.8911 H       1  LIG1        0.0625
     35 H          95.5945   53.8384  267.9783 H       1  LIG1        0.0654
     36 H          92.6588   52.9130  271.0228 H       1  LIG1        0.0654
     37 H          92.1743   50.8105  269.8846 H       1  LIG1        0.0625
     38 H          89.5886   48.6199  266.8796 H       1  LIG1        0.1522
     39 H          91.4216   47.5070  263.9713 H       1  LIG1        0.0849
     40 H          88.2783   45.3853  262.3241 H       1  LIG1        0.0830
     41 H          86.9043   45.6552  264.3634 H       1  LIG1        0.0652
     42 H          87.8696   45.6335  269.0001 H       1  LIG1        0.0468
     43 H          89.4070   46.0124  268.1807 H       1  LIG1        0.0468
     44 H          88.3643   44.6916  267.5753 H       1  LIG1        0.0468
     45 H          94.0299   56.0094  271.7452 H       1  LIG1        0.0660
     46 H          94.0028   54.3161  272.1675 H       1  LIG1        0.0660
     47 H          92.6363   55.0361  271.2683 H       1  LIG1        0.0660
@<TRIPOS>BOND
     1     1     4   ar
     2     1     6   ar
     3     1    11    1
     4     2     3   ar
     5     2     5   ar
     6     2    30    1
     7     3     4   ar
     8     3    17    1
     9     4    31    1
    10     5     6   ar
    11     5    10   ar
    12     6     7   ar
    13     7     8   ar
    14     8     9   ar
    15     8    32    1
    16     9    10   ar
    17     9    33    1
    18    11    12   ar
    19    11    16   ar
    20    12    13   ar
    21    12    34    1
    22    13    14   ar
    23    13    35    1
    24    14    15   ar
    25    14    28    1
    26    15    16   ar
    27    15    36    1
    28    16    37    1
    29    17    18    1
    30    17    38    1
    31    18    19   ar
    32    18    23   ar
    33    19    20   ar
    34    19    39    1
    35    20    21   ar
    36    21    22   ar
    37    21    40    1
    38    22    23   ar
    39    22    41    1
    40    23    24    1
    41    24    25    2
    42    24    26    2
    43    24    27    1
    44    27    42    1
    45    27    43    1
    46    27    44    1
    47    28    29    1
    48    29    45    1
    49    29    46    1
    50    29    47    1
