48
 OpenBabel02152110423D
Structure written by MMmdl.
 47 50  0  0  1  0  0  0  0  0999 V2000
   93.2891   49.7935  267.6637 C   0  0  0  0  0  0  0  0  0  0  0  0
   92.5608   47.3405  266.4814 C   0  0  0  0  0  0  0  0  0  0  0  0
   91.6077   48.3332  266.6707 C   0  0  0  0  0  0  0  0  0  0  0  0
   91.9710   49.5295  267.2722 C   0  0  0  0  0  0  0  0  0  0  0  0
   93.8940   47.5337  266.9045 C   0  0  0  0  0  0  0  0  0  0  0  0
   94.2774   48.7739  267.4976 C   0  0  0  0  0  0  0  0  0  0  0  0
   95.5626   48.9634  267.9320 N   0  0  0  0  0  0  0  0  0  0  0  0
   96.4502   47.9550  267.7462 C   0  0  0  0  0  0  0  0  0  0  0  0
   96.0648   46.7470  267.1768 C   0  0  0  0  0  0  0  0  0  0  0  0
   94.7990   46.5280  266.7549 N   0  0  0  0  0  0  0  0  0  0  0  0
   93.5991   51.0971  268.3145 C   0  0  0  0  0  0  0  0  0  0  0  0
   94.5753   51.9457  267.7785 C   0  0  0  0  0  0  0  0  0  0  0  0
   94.8348   53.1676  268.4112 C   0  0  0  0  0  0  0  0  0  0  0  0
   94.1285   53.5217  269.5605 C   0  0  0  0  0  0  0  0  0  0  0  0
   93.1788   52.6604  270.1058 C   0  0  0  0  0  0  0  0  0  0  0  0
   92.9139   51.4668  269.4673 C   0  0  0  0  0  0  0  0  0  0  0  0
   90.2715   48.1257  266.3145 N   0  0  0  0  0  0  0  0  0  0  0  0
   89.7152   47.3459  265.2879 C   0  0  0  0  0  0  0  0  0  0  0  0
   90.4202   47.1272  264.0964 C   0  0  0  0  0  0  0  0  0  0  0  0
   89.9129   46.4356  263.0461 N   0  0  0  0  0  0  0  0  0  0  0  0
   88.6622   45.9374  263.1674 C   0  0  0  0  0  0  0  0  0  0  0  0
   87.8909   46.0945  264.3162 C   0  0  0  0  0  0  0  0  0  0  0  0
   88.4225   46.8019  265.4011 C   0  0  0  0  0  0  0  0  0  0  0  0
   87.4807   46.8954  266.9247 S   0  0  0  0  0  0  0  0  0  0  0  0
   86.1397   46.3717  266.6686 O   0  0  0  0  0  0  0  0  0  0  0  0
   87.6511   48.2450  267.4794 O   0  0  0  0  0  0  0  0  0  0  0  0
   88.3821   45.6757  268.0448 C   0  0  0  0  0  0  0  0  0  0  0  0
   94.3897   54.7426  270.1571 O   0  0  0  0  0  0  0  0  0  0  0  0
   93.7287   55.0566  271.4029 C   0  0  0  0  0  0  0  0  0  0  0  0
   92.2928   46.4025  266.0289 H   0  0  0  0  0  0  0  0  0  0  0  0
   91.2152   50.2846  267.4485 H   0  0  0  0  0  0  0  0  0  0  0  0
   97.4706   48.1430  268.0444 H   0  0  0  0  0  0  0  0  0  0  0  0
   96.7729   45.9446  267.0248 H   0  0  0  0  0  0  0  0  0  0  0  0
   95.1201   51.6805  266.8911 H   0  0  0  0  0  0  0  0  0  0  0  0
   95.5945   53.8384  267.9783 H   0  0  0  0  0  0  0  0  0  0  0  0
   92.6588   52.9130  271.0228 H   0  0  0  0  0  0  0  0  0  0  0  0
   92.1743   50.8105  269.8846 H   0  0  0  0  0  0  0  0  0  0  0  0
   89.5886   48.6199  266.8796 H   0  0  0  0  0  0  0  0  0  0  0  0
   91.4216   47.5070  263.9713 H   0  0  0  0  0  0  0  0  0  0  0  0
   88.2783   45.3853  262.3241 H   0  0  0  0  0  0  0  0  0  0  0  0
   86.9043   45.6552  264.3634 H   0  0  0  0  0  0  0  0  0  0  0  0
   87.8696   45.6335  269.0001 H   0  0  0  0  0  0  0  0  0  0  0  0
   89.4070   46.0124  268.1807 H   0  0  0  0  0  0  0  0  0  0  0  0
   88.3643   44.6916  267.5753 H   0  0  0  0  0  0  0  0  0  0  0  0
   94.0299   56.0094  271.7452 H   0  0  0  0  0  0  0  0  0  0  0  0
   94.0028   54.3161  272.1675 H   0  0  0  0  0  0  0  0  0  0  0  0
   92.6363   55.0361  271.2683 H   0  0  0  0  0  0  0  0  0  0  0  0
  1  4  1  0  0  0  0
  1  6  2  0  0  0  0
  1 11  1  0  0  0  0
  2  3  1  0  0  0  0
  2  5  2  0  0  0  0
  2 30  1  0  0  0  0
  3  4  2  0  0  0  0
  3 17  1  0  0  0  0
  4 31  1  0  0  0  0
  5  6  1  0  0  0  0
  5 10  1  0  0  0  0
  6  7  1  0  0  0  0
  7  8  2  0  0  0  0
  8  9  1  0  0  0  0
  8 32  1  0  0  0  0
  9 10  2  0  0  0  0
  9 33  1  0  0  0  0
 11 12  2  0  0  0  0
 11 16  1  0  0  0  0
 12 13  1  0  0  0  0
 12 34  1  0  0  0  0
 13 14  2  0  0  0  0
 13 35  1  0  0  0  0
 14 15  1  0  0  0  0
 14 28  1  0  0  0  0
 15 16  2  0  0  0  0
 15 36  1  0  0  0  0
 16 37  1  0  0  0  0
 17 18  1  0  0  0  0
 17 38  1  0  0  0  0
 18 19  2  0  0  0  0
 18 23  1  0  0  0  0
 19 20  1  0  0  0  0
 19 39  1  0  0  0  0
 20 21  2  0  0  0  0
 21 22  1  0  0  0  0
 21 40  1  0  0  0  0
 22 23  2  0  0  0  0
 22 41  1  0  0  0  0
 23 24  1  0  0  0  0
 24 25  2  0  0  0  0
 24 26  2  0  0  0  0
 24 27  1  0  0  0  0
 27 42  1  0  0  0  0
 27 43  1  0  0  0  0
 27 44  1  0  0  0  0
 28 29  1  0  0  0  0
 29 45  1  0  0  0  0
 29 46  1  0  0  0  0
 29 47  1  0  0  0  0
M  END
>  <ID>
48

>  <IC50[uM]>
1.353

$$$$
