@<TRIPOS>MOLECULE
49
 45 48 0 0 0
SMALL
GASTEIGER
****
Structure written by MMmdl.
@<TRIPOS>ATOM
      1 C          93.2820   49.7787  267.6942 C.ar    1  LIG1        0.0113
      2 C          92.5593   47.3370  266.4888 C.ar    1  LIG1       -0.0130
      3 C          91.6047   48.3296  266.6732 C.ar    1  LIG1        0.0341
      4 C          91.9709   49.5231  267.2782 C.ar    1  LIG1       -0.0307
      5 C          93.8953   47.5304  266.9261 C.ar    1  LIG1        0.0915
      6 C          94.2750   48.7673  267.5290 C.ar    1  LIG1        0.0969
      7 N          95.5619   48.9626  267.9535 N.ar    1  LIG1       -0.2513
      8 C          96.4516   47.9533  267.7695 C.ar    1  LIG1        0.0464
      9 C          96.0598   46.7392  267.2106 C.ar    1  LIG1        0.0464
     10 N          94.7989   46.5188  266.7897 N.ar    1  LIG1       -0.2519
     11 C          93.5952   51.0844  268.3313 C.ar    1  LIG1       -0.0156
     12 C          94.5719   51.9301  267.7852 C.ar    1  LIG1       -0.0522
     13 C          94.8427   53.1540  268.3966 C.ar    1  LIG1       -0.0405
     14 C          94.1433   53.5318  269.5201 C.ar    1  LIG1        0.0246
     15 C          93.1746   52.7091  270.0775 C.ar    1  LIG1       -0.0405
     16 C          92.9084   51.4788  269.4813 C.ar    1  LIG1       -0.0522
     17 N          90.2697   48.1106  266.3099 N.pl3   1  LIG1       -0.3118
     18 C          89.7103   47.3327  265.2784 C.ar    1  LIG1        0.0748
     19 C          90.4172   47.1253  264.0922 C.ar    1  LIG1        0.0505
     20 N          89.8957   46.4495  263.0389 N.ar    1  LIG1       -0.2613
     21 C          88.6529   45.9439  263.1611 C.ar    1  LIG1        0.0295
     22 C          87.8862   46.0847  264.3178 C.ar    1  LIG1       -0.0169
     23 C          88.4170   46.8009  265.3996 C.ar    1  LIG1        0.1118
     24 S          87.4738   46.8803  266.9122 S.O2    1  LIG1       -0.0040
     25 O          86.1325   46.4072  266.6648 O.2     1  LIG1       -0.1696
     26 O          87.6872   48.2303  267.4905 O.2     1  LIG1       -0.1696
     27 C          88.3692   45.6214  267.9982 C.3     1  LIG1        0.0597
     28 N          94.4021   54.7489  270.1265 N.pl3   1  LIG1       -0.3580
     29 H          92.2854   46.3918  266.0511 H       1  LIG1        0.0658
     30 H          91.2104   50.2821  267.4244 H       1  LIG1        0.0643
     31 H          97.4787   48.1515  268.0470 H       1  LIG1        0.0845
     32 H          96.7743   45.9391  267.0464 H       1  LIG1        0.0845
     33 H          95.1082   51.6414  266.9089 H       1  LIG1        0.0624
     34 H          95.6103   53.8120  267.9571 H       1  LIG1        0.0636
     35 H          92.6490   53.0121  270.9964 H       1  LIG1        0.0636
     36 H          92.1657   50.8433  269.9430 H       1  LIG1        0.0624
     37 H          89.5675   48.5840  266.8654 H       1  LIG1        0.1522
     38 H          91.4129   47.5223  263.9807 H       1  LIG1        0.0849
     39 H          88.2686   45.3827  262.3187 H       1  LIG1        0.0830
     40 H          86.9071   45.6337  264.3890 H       1  LIG1        0.0652
     41 H          87.8387   45.5102  268.9412 H       1  LIG1        0.0468
     42 H          89.3864   45.9742  268.1594 H       1  LIG1        0.0468
     43 H          88.3749   44.6677  267.4664 H       1  LIG1        0.0468
     44 H          93.8999   55.0302  270.9569 H       1  LIG1        0.1423
     45 H          95.0881   55.3795  269.6841 H       1  LIG1        0.1423
@<TRIPOS>BOND
     1     1     4   ar
     2     1     6   ar
     3     1    11    1
     4     2     3   ar
     5     2     5   ar
     6     2    29    1
     7     3     4   ar
     8     3    17    1
     9     4    30    1
    10     5     6   ar
    11     5    10   ar
    12     6     7   ar
    13     7     8   ar
    14     8     9   ar
    15     8    31    1
    16     9    10   ar
    17     9    32    1
    18    11    12   ar
    19    11    16   ar
    20    12    13   ar
    21    12    33    1
    22    13    14   ar
    23    13    34    1
    24    14    15   ar
    25    14    28    1
    26    15    16   ar
    27    15    35    1
    28    16    36    1
    29    17    18    1
    30    17    37    1
    31    18    19   ar
    32    18    23   ar
    33    19    20   ar
    34    19    38    1
    35    20    21   ar
    36    21    22   ar
    37    21    39    1
    38    22    23   ar
    39    22    40    1
    40    23    24    1
    41    24    25    2
    42    24    26    2
    43    24    27    1
    44    27    41    1
    45    27    42    1
    46    27    43    1
    47    28    44    1
    48    28    45    1
