49
 OpenBabel02152110423D
Structure written by MMmdl.
 45 48  0  0  1  0  0  0  0  0999 V2000
   93.2820   49.7787  267.6942 C   0  0  0  0  0  0  0  0  0  0  0  0
   92.5593   47.3370  266.4888 C   0  0  0  0  0  0  0  0  0  0  0  0
   91.6047   48.3296  266.6732 C   0  0  0  0  0  0  0  0  0  0  0  0
   91.9709   49.5231  267.2782 C   0  0  0  0  0  0  0  0  0  0  0  0
   93.8953   47.5304  266.9261 C   0  0  0  0  0  0  0  0  0  0  0  0
   94.2750   48.7673  267.5290 C   0  0  0  0  0  0  0  0  0  0  0  0
   95.5619   48.9626  267.9535 N   0  0  0  0  0  0  0  0  0  0  0  0
   96.4516   47.9533  267.7695 C   0  0  0  0  0  0  0  0  0  0  0  0
   96.0598   46.7392  267.2106 C   0  0  0  0  0  0  0  0  0  0  0  0
   94.7989   46.5188  266.7897 N   0  0  0  0  0  0  0  0  0  0  0  0
   93.5952   51.0844  268.3313 C   0  0  0  0  0  0  0  0  0  0  0  0
   94.5719   51.9301  267.7852 C   0  0  0  0  0  0  0  0  0  0  0  0
   94.8427   53.1540  268.3966 C   0  0  0  0  0  0  0  0  0  0  0  0
   94.1433   53.5318  269.5201 C   0  0  0  0  0  0  0  0  0  0  0  0
   93.1746   52.7091  270.0775 C   0  0  0  0  0  0  0  0  0  0  0  0
   92.9084   51.4788  269.4813 C   0  0  0  0  0  0  0  0  0  0  0  0
   90.2697   48.1106  266.3099 N   0  0  0  0  0  0  0  0  0  0  0  0
   89.7103   47.3327  265.2784 C   0  0  0  0  0  0  0  0  0  0  0  0
   90.4172   47.1253  264.0922 C   0  0  0  0  0  0  0  0  0  0  0  0
   89.8957   46.4495  263.0389 N   0  0  0  0  0  0  0  0  0  0  0  0
   88.6529   45.9439  263.1611 C   0  0  0  0  0  0  0  0  0  0  0  0
   87.8862   46.0847  264.3178 C   0  0  0  0  0  0  0  0  0  0  0  0
   88.4170   46.8009  265.3996 C   0  0  0  0  0  0  0  0  0  0  0  0
   87.4738   46.8803  266.9122 S   0  0  0  0  0  0  0  0  0  0  0  0
   86.1325   46.4072  266.6648 O   0  0  0  0  0  0  0  0  0  0  0  0
   87.6872   48.2303  267.4905 O   0  0  0  0  0  0  0  0  0  0  0  0
   88.3692   45.6214  267.9982 C   0  0  0  0  0  0  0  0  0  0  0  0
   94.4021   54.7489  270.1265 N   0  0  0  0  0  0  0  0  0  0  0  0
   92.2854   46.3918  266.0511 H   0  0  0  0  0  0  0  0  0  0  0  0
   91.2104   50.2821  267.4244 H   0  0  0  0  0  0  0  0  0  0  0  0
   97.4787   48.1515  268.0470 H   0  0  0  0  0  0  0  0  0  0  0  0
   96.7743   45.9391  267.0464 H   0  0  0  0  0  0  0  0  0  0  0  0
   95.1082   51.6414  266.9089 H   0  0  0  0  0  0  0  0  0  0  0  0
   95.6103   53.8120  267.9571 H   0  0  0  0  0  0  0  0  0  0  0  0
   92.6490   53.0121  270.9964 H   0  0  0  0  0  0  0  0  0  0  0  0
   92.1657   50.8433  269.9430 H   0  0  0  0  0  0  0  0  0  0  0  0
   89.5675   48.5840  266.8654 H   0  0  0  0  0  0  0  0  0  0  0  0
   91.4129   47.5223  263.9807 H   0  0  0  0  0  0  0  0  0  0  0  0
   88.2686   45.3827  262.3187 H   0  0  0  0  0  0  0  0  0  0  0  0
   86.9071   45.6337  264.3890 H   0  0  0  0  0  0  0  0  0  0  0  0
   87.8387   45.5102  268.9412 H   0  0  0  0  0  0  0  0  0  0  0  0
   89.3864   45.9742  268.1594 H   0  0  0  0  0  0  0  0  0  0  0  0
   88.3749   44.6677  267.4664 H   0  0  0  0  0  0  0  0  0  0  0  0
   93.8999   55.0302  270.9569 H   0  0  0  0  0  0  0  0  0  0  0  0
   95.0881   55.3795  269.6841 H   0  0  0  0  0  0  0  0  0  0  0  0
  1  4  1  0  0  0  0
  1  6  2  0  0  0  0
  1 11  1  0  0  0  0
  2  3  1  0  0  0  0
  2  5  2  0  0  0  0
  2 29  1  0  0  0  0
  3  4  2  0  0  0  0
  3 17  1  0  0  0  0
  4 30  1  0  0  0  0
  5  6  1  0  0  0  0
  5 10  1  0  0  0  0
  6  7  1  0  0  0  0
  7  8  2  0  0  0  0
  8  9  1  0  0  0  0
  8 31  1  0  0  0  0
  9 10  2  0  0  0  0
  9 32  1  0  0  0  0
 11 12  2  0  0  0  0
 11 16  1  0  0  0  0
 12 13  1  0  0  0  0
 12 33  1  0  0  0  0
 13 14  2  0  0  0  0
 13 34  1  0  0  0  0
 14 15  1  0  0  0  0
 14 28  1  0  0  0  0
 15 16  2  0  0  0  0
 15 35  1  0  0  0  0
 16 36  1  0  0  0  0
 17 18  1  0  0  0  0
 17 37  1  0  0  0  0
 18 19  2  0  0  0  0
 18 23  1  0  0  0  0
 19 20  1  0  0  0  0
 19 38  1  0  0  0  0
 20 21  2  0  0  0  0
 21 22  1  0  0  0  0
 21 39  1  0  0  0  0
 22 23  2  0  0  0  0
 22 40  1  0  0  0  0
 23 24  1  0  0  0  0
 24 25  2  0  0  0  0
 24 26  2  0  0  0  0
 24 27  1  0  0  0  0
 27 41  1  0  0  0  0
 27 42  1  0  0  0  0
 27 43  1  0  0  0  0
 28 44  1  0  0  0  0
 28 45  1  0  0  0  0
M  END
>  <ID>
49

>  <IC50[uM]>
1.528

$$$$
