@<TRIPOS>MOLECULE
52
 53 57 0 0 0
SMALL
GASTEIGER
****
Structure written by MMmdl.
@<TRIPOS>ATOM
      1 C          93.3114   49.8130  267.6412 C.ar    1  LIG1        0.0114
      2 C          92.5675   47.3461  266.4704 C.ar    1  LIG1       -0.0130
      3 C          91.6140   48.3391  266.6758 C.ar    1  LIG1        0.0341
      4 C          91.9831   49.5402  267.2762 C.ar    1  LIG1       -0.0307
      5 C          93.8959   47.5397  266.9028 C.ar    1  LIG1        0.0915
      6 C          94.2808   48.7816  267.4948 C.ar    1  LIG1        0.0969
      7 N          95.5663   48.9631  267.9272 N.ar    1  LIG1       -0.2513
      8 C          96.4496   47.9536  267.7395 C.ar    1  LIG1        0.0464
      9 C          96.0619   46.7444  267.1779 C.ar    1  LIG1        0.0464
     10 N          94.7952   46.5297  266.7538 N.ar    1  LIG1       -0.2519
     11 N          90.2754   48.1313  266.3198 N.pl3   1  LIG1       -0.3118
     12 C          89.7170   47.3507  265.2914 C.ar    1  LIG1        0.0748
     13 C          90.4214   47.1275  264.1002 C.ar    1  LIG1        0.0505
     14 N          89.9190   46.4350  263.0469 N.ar    1  LIG1       -0.2613
     15 C          88.6628   45.9396  263.1653 C.ar    1  LIG1        0.0295
     16 C          87.8883   46.0973  264.3134 C.ar    1  LIG1       -0.0169
     17 C          88.4249   46.8053  265.3978 C.ar    1  LIG1        0.1118
     18 S          87.4805   46.8913  266.9255 S.O2    1  LIG1       -0.0040
     19 O          86.1396   46.3665  266.6677 O.2     1  LIG1       -0.1696
     20 O          87.6492   48.2417  267.4792 O.2     1  LIG1       -0.1696
     21 C          88.3838   45.6765  268.0465 C.3     1  LIG1        0.0597
     22 C          93.6501   51.1190  268.2585 C.ar    1  LIG1       -0.0138
     23 C          94.6211   51.9736  267.7509 C.ar    1  LIG1       -0.0533
     24 C          94.8963   53.2015  268.3556 C.ar    1  LIG1       -0.0520
     25 C          92.9588   51.4516  269.4041 C.ar    1  LIG1       -0.0298
     26 C          93.2230   52.6641  270.0467 C.ar    1  LIG1        0.0496
     27 C          94.1745   53.5756  269.5049 C.ar    1  LIG1       -0.0001
     28 C          94.1617   54.7286  270.3490 C.ar    1  LIG1       -0.0364
     29 C          93.2720   54.4750  271.3665 C.ar    1  LIG1        0.0057
     30 N          92.7072   53.2287  271.2146 N.ar    1  LIG1       -0.3469
     31 C          91.8097   52.6164  272.2119 C.3     1  LIG1        0.0205
     32 C          90.7891   51.6506  271.6176 C.3     1  LIG1       -0.0471
     33 H          92.2865   46.4011  266.0282 H       1  LIG1        0.0658
     34 H          91.2205   50.2896  267.4479 H       1  LIG1        0.0643
     35 H          97.4683   48.1407  268.0439 H       1  LIG1        0.0845
     36 H          96.7697   45.9448  267.0181 H       1  LIG1        0.0845
     37 H          89.5855   48.6227  266.8783 H       1  LIG1        0.1522
     38 H          91.4226   47.5040  263.9727 H       1  LIG1        0.0849
     39 H          88.2778   45.3844  262.3233 H       1  LIG1        0.0830
     40 H          86.9011   45.6556  264.3639 H       1  LIG1        0.0652
     41 H          87.8696   45.6352  269.0056 H       1  LIG1        0.0468
     42 H          89.4113   46.0126  268.1796 H       1  LIG1        0.0468
     43 H          88.3656   44.6930  267.5796 H       1  LIG1        0.0468
     44 H          95.1401   51.6698  266.8558 H       1  LIG1        0.0624
     45 H          95.6429   53.8541  267.9250 H       1  LIG1        0.0624
     46 H          92.2336   50.7237  269.7011 H       1  LIG1        0.0644
     47 H          94.7721   55.6146  270.2457 H       1  LIG1        0.0639
     48 H          93.0024   55.0952  272.2130 H       1  LIG1        0.0809
     49 H          91.2696   53.4001  272.7426 H       1  LIG1        0.0489
     50 H          92.4113   52.0715  272.9378 H       1  LIG1        0.0489
     51 H          90.1336   51.1695  272.3208 H       1  LIG1        0.0247
     52 H          91.2619   50.7266  271.3302 H       1  LIG1        0.0247
     53 H          90.2101   52.0773  270.7922 H       1  LIG1        0.0247
@<TRIPOS>BOND
     1     1     4   ar
     2     1     6   ar
     3     1    22    1
     4     2     3   ar
     5     2     5   ar
     6     2    33    1
     7     3     4   ar
     8     3    11    1
     9     4    34    1
    10     5     6   ar
    11     5    10   ar
    12     6     7   ar
    13     7     8   ar
    14     8     9   ar
    15     8    35    1
    16     9    10   ar
    17     9    36    1
    18    11    12    1
    19    11    37    1
    20    12    13   ar
    21    12    17   ar
    22    13    14   ar
    23    13    38    1
    24    14    15   ar
    25    15    16   ar
    26    15    39    1
    27    16    17   ar
    28    16    40    1
    29    17    18    1
    30    18    19    2
    31    18    20    2
    32    18    21    1
    33    21    41    1
    34    21    42    1
    35    21    43    1
    36    22    23   ar
    37    22    25   ar
    38    23    24   ar
    39    23    44    1
    40    24    27   ar
    41    24    45    1
    42    25    26   ar
    43    25    46    1
    44    26    27   ar
    45    26    30   ar
    46    27    28   ar
    47    28    29   ar
    48    28    47    1
    49    29    30   ar
    50    29    48    1
    51    30    31    1
    52    31    32    1
    53    31    49    1
    54    31    50    1
    55    32    51    1
    56    32    52    1
    57    32    53    1
