@<TRIPOS>MOLECULE
53
 56 60 0 0 0
SMALL
GASTEIGER
****
Structure written by MMmdl.
@<TRIPOS>ATOM
      1 C          93.3094   49.8018  267.6715 C.ar    1  LIG1        0.0114
      2 C          92.5663   47.3465  266.4764 C.ar    1  LIG1       -0.0130
      3 C          91.6141   48.3425  266.6765 C.ar    1  LIG1        0.0341
      4 C          91.9847   49.5423  267.2840 C.ar    1  LIG1       -0.0307
      5 C          93.8976   47.5374  266.9026 C.ar    1  LIG1        0.0915
      6 C          94.2817   48.7776  267.4988 C.ar    1  LIG1        0.0969
      7 N          95.5685   48.9601  267.9272 N.ar    1  LIG1       -0.2513
      8 C          96.4515   47.9520  267.7392 C.ar    1  LIG1        0.0464
      9 C          96.0722   46.7442  267.1750 C.ar    1  LIG1        0.0464
     10 N          94.7966   46.5286  266.7520 N.ar    1  LIG1       -0.2519
     11 C          93.6558   51.0878  268.3201 C.ar    1  LIG1       -0.0138
     12 C          94.5958   51.9639  267.7545 C.ar    1  LIG1       -0.0533
     13 C          94.8801   53.1908  268.3506 C.ar    1  LIG1       -0.0520
     14 C          93.0752   51.3916  269.5378 C.ar    1  LIG1       -0.0298
     15 N          90.2756   48.1331  266.3189 N.pl3   1  LIG1       -0.3118
     16 C          89.7176   47.3508  265.2916 C.ar    1  LIG1        0.0748
     17 C          90.4208   47.1280  264.0996 C.ar    1  LIG1        0.0505
     18 N          89.9177   46.4358  263.0468 N.ar    1  LIG1       -0.2613
     19 C          88.6627   45.9387  263.1665 C.ar    1  LIG1        0.0295
     20 C          87.8896   46.0967  264.3155 C.ar    1  LIG1       -0.0169
     21 C          88.4252   46.8051  265.3987 C.ar    1  LIG1        0.1118
     22 S          87.4830   46.8956  266.9271 S.O2    1  LIG1       -0.0040
     23 O          86.1384   46.3667  266.6674 O.2     1  LIG1       -0.1696
     24 O          87.6481   48.2411  267.4789 O.2     1  LIG1       -0.1696
     25 C          88.3835   45.6760  268.0451 C.3     1  LIG1        0.0597
     26 C          93.2883   52.6417  270.1079 C.ar    1  LIG1        0.0496
     27 C          94.1853   53.5555  269.5070 C.ar    1  LIG1       -0.0001
     28 C          94.1740   54.7256  270.3504 C.ar    1  LIG1       -0.0364
     29 C          93.2801   54.4760  271.3702 C.ar    1  LIG1        0.0057
     30 N          92.7561   53.2209  271.2520 N.ar    1  LIG1       -0.3466
     31 C          91.8097   52.5822  272.1667 C.3     1  LIG1        0.0230
     32 C          90.3901   52.3401  271.5852 C.3     1  LIG1       -0.0378
     33 C          90.2277   52.2740  270.0518 C.3     1  LIG1       -0.0637
     34 H          92.2891   46.4042  266.0275 H       1  LIG1        0.0658
     35 H          91.2251   50.2934  267.4554 H       1  LIG1        0.0643
     36 H          97.4710   48.1402  268.0447 H       1  LIG1        0.0845
     37 H          96.7729   45.9434  267.0197 H       1  LIG1        0.0845
     38 H          95.1080   51.6781  266.8507 H       1  LIG1        0.0624
     39 H          95.6264   53.8508  267.9180 H       1  LIG1        0.0624
     40 H          92.4379   50.6737  270.0168 H       1  LIG1        0.0644
     41 H          89.5894   48.6242  266.8810 H       1  LIG1        0.1522
     42 H          91.4232   47.5028  263.9711 H       1  LIG1        0.0849
     43 H          88.2782   45.3848  262.3238 H       1  LIG1        0.0830
     44 H          86.9026   45.6563  264.3619 H       1  LIG1        0.0652
     45 H          87.8704   45.6353  269.0044 H       1  LIG1        0.0468
     46 H          89.4106   46.0123  268.1808 H       1  LIG1        0.0468
     47 H          88.3655   44.6919  267.5793 H       1  LIG1        0.0468
     48 H          94.7587   55.6055  270.2364 H       1  LIG1        0.0639
     49 H          92.9922   55.1042  272.2065 H       1  LIG1        0.0809
     50 H          91.7407   53.1842  273.0797 H       1  LIG1        0.0492
     51 H          92.2553   51.6380  272.4817 H       1  LIG1        0.0492
     52 H          89.7237   53.1198  271.9416 H       1  LIG1        0.0280
     53 H          90.0417   51.4211  272.0281 H       1  LIG1        0.0280
     54 H          89.1959   52.1688  269.7495 H       1  LIG1        0.0230
     55 H          90.6886   51.4066  269.6298 H       1  LIG1        0.0230
     56 H          90.6529   53.1482  269.5728 H       1  LIG1        0.0230
@<TRIPOS>BOND
     1     1     4   ar
     2     1     6   ar
     3     1    11    1
     4     2     3   ar
     5     2     5   ar
     6     2    34    1
     7     3     4   ar
     8     3    15    1
     9     4    35    1
    10     5     6   ar
    11     5    10   ar
    12     6     7   ar
    13     7     8   ar
    14     8     9   ar
    15     8    36    1
    16     9    10   ar
    17     9    37    1
    18    11    12   ar
    19    11    14   ar
    20    12    13   ar
    21    12    38    1
    22    13    27   ar
    23    13    39    1
    24    14    26   ar
    25    14    40    1
    26    15    16    1
    27    15    41    1
    28    16    17   ar
    29    16    21   ar
    30    17    18   ar
    31    17    42    1
    32    18    19   ar
    33    19    20   ar
    34    19    43    1
    35    20    21   ar
    36    20    44    1
    37    21    22    1
    38    22    23    2
    39    22    24    2
    40    22    25    1
    41    25    45    1
    42    25    46    1
    43    25    47    1
    44    26    27   ar
    45    26    30   ar
    46    27    28   ar
    47    28    29   ar
    48    28    48    1
    49    29    30   ar
    50    29    49    1
    51    30    31    1
    52    31    32    1
    53    31    50    1
    54    31    51    1
    55    32    33    1
    56    32    52    1
    57    32    53    1
    58    33    54    1
    59    33    55    1
    60    33    56    1
