53
 OpenBabel02152110423D
Structure written by MMmdl.
 56 60  0  0  1  0  0  0  0  0999 V2000
   93.3094   49.8018  267.6715 C   0  0  0  0  0  0  0  0  0  0  0  0
   92.5663   47.3465  266.4764 C   0  0  0  0  0  0  0  0  0  0  0  0
   91.6141   48.3425  266.6765 C   0  0  0  0  0  0  0  0  0  0  0  0
   91.9847   49.5423  267.2840 C   0  0  0  0  0  0  0  0  0  0  0  0
   93.8976   47.5374  266.9026 C   0  0  0  0  0  0  0  0  0  0  0  0
   94.2817   48.7776  267.4988 C   0  0  0  0  0  0  0  0  0  0  0  0
   95.5685   48.9601  267.9272 N   0  0  0  0  0  0  0  0  0  0  0  0
   96.4515   47.9520  267.7392 C   0  0  0  0  0  0  0  0  0  0  0  0
   96.0722   46.7442  267.1750 C   0  0  0  0  0  0  0  0  0  0  0  0
   94.7966   46.5286  266.7520 N   0  0  0  0  0  0  0  0  0  0  0  0
   93.6558   51.0878  268.3201 C   0  0  0  0  0  0  0  0  0  0  0  0
   94.5958   51.9639  267.7545 C   0  0  0  0  0  0  0  0  0  0  0  0
   94.8801   53.1908  268.3506 C   0  0  0  0  0  0  0  0  0  0  0  0
   93.0752   51.3916  269.5378 C   0  0  0  0  0  0  0  0  0  0  0  0
   90.2756   48.1331  266.3189 N   0  0  0  0  0  0  0  0  0  0  0  0
   89.7176   47.3508  265.2916 C   0  0  0  0  0  0  0  0  0  0  0  0
   90.4208   47.1280  264.0996 C   0  0  0  0  0  0  0  0  0  0  0  0
   89.9177   46.4358  263.0468 N   0  0  0  0  0  0  0  0  0  0  0  0
   88.6627   45.9387  263.1665 C   0  0  0  0  0  0  0  0  0  0  0  0
   87.8896   46.0967  264.3155 C   0  0  0  0  0  0  0  0  0  0  0  0
   88.4252   46.8051  265.3987 C   0  0  0  0  0  0  0  0  0  0  0  0
   87.4830   46.8956  266.9271 S   0  0  0  0  0  0  0  0  0  0  0  0
   86.1384   46.3667  266.6674 O   0  0  0  0  0  0  0  0  0  0  0  0
   87.6481   48.2411  267.4789 O   0  0  0  0  0  0  0  0  0  0  0  0
   88.3835   45.6760  268.0451 C   0  0  0  0  0  0  0  0  0  0  0  0
   93.2883   52.6417  270.1079 C   0  0  0  0  0  0  0  0  0  0  0  0
   94.1853   53.5555  269.5070 C   0  0  0  0  0  0  0  0  0  0  0  0
   94.1740   54.7256  270.3504 C   0  0  0  0  0  0  0  0  0  0  0  0
   93.2801   54.4760  271.3702 C   0  0  0  0  0  0  0  0  0  0  0  0
   92.7561   53.2209  271.2520 N   0  0  0  0  0  0  0  0  0  0  0  0
   91.8097   52.5822  272.1667 C   0  0  0  0  0  0  0  0  0  0  0  0
   90.3901   52.3401  271.5852 C   0  0  0  0  0  0  0  0  0  0  0  0
   90.2277   52.2740  270.0518 C   0  0  0  0  0  0  0  0  0  0  0  0
   92.2891   46.4042  266.0275 H   0  0  0  0  0  0  0  0  0  0  0  0
   91.2251   50.2934  267.4554 H   0  0  0  0  0  0  0  0  0  0  0  0
   97.4710   48.1402  268.0447 H   0  0  0  0  0  0  0  0  0  0  0  0
   96.7729   45.9434  267.0197 H   0  0  0  0  0  0  0  0  0  0  0  0
   95.1080   51.6781  266.8507 H   0  0  0  0  0  0  0  0  0  0  0  0
   95.6264   53.8508  267.9180 H   0  0  0  0  0  0  0  0  0  0  0  0
   92.4379   50.6737  270.0168 H   0  0  0  0  0  0  0  0  0  0  0  0
   89.5894   48.6242  266.8810 H   0  0  0  0  0  0  0  0  0  0  0  0
   91.4232   47.5028  263.9711 H   0  0  0  0  0  0  0  0  0  0  0  0
   88.2782   45.3848  262.3238 H   0  0  0  0  0  0  0  0  0  0  0  0
   86.9026   45.6563  264.3619 H   0  0  0  0  0  0  0  0  0  0  0  0
   87.8704   45.6353  269.0044 H   0  0  0  0  0  0  0  0  0  0  0  0
   89.4106   46.0123  268.1808 H   0  0  0  0  0  0  0  0  0  0  0  0
   88.3655   44.6919  267.5793 H   0  0  0  0  0  0  0  0  0  0  0  0
   94.7587   55.6055  270.2364 H   0  0  0  0  0  0  0  0  0  0  0  0
   92.9922   55.1042  272.2065 H   0  0  0  0  0  0  0  0  0  0  0  0
   91.7407   53.1842  273.0797 H   0  0  0  0  0  0  0  0  0  0  0  0
   92.2553   51.6380  272.4817 H   0  0  0  0  0  0  0  0  0  0  0  0
   89.7237   53.1198  271.9416 H   0  0  0  0  0  0  0  0  0  0  0  0
   90.0417   51.4211  272.0281 H   0  0  0  0  0  0  0  0  0  0  0  0
   89.1959   52.1688  269.7495 H   0  0  0  0  0  0  0  0  0  0  0  0
   90.6886   51.4066  269.6298 H   0  0  0  0  0  0  0  0  0  0  0  0
   90.6529   53.1482  269.5728 H   0  0  0  0  0  0  0  0  0  0  0  0
  1  4  1  0  0  0  0
  1  6  2  0  0  0  0
  1 11  1  0  0  0  0
  2  3  1  0  0  0  0
  2  5  2  0  0  0  0
  2 34  1  0  0  0  0
  3  4  2  0  0  0  0
  3 15  1  0  0  0  0
  4 35  1  0  0  0  0
  5  6  1  0  0  0  0
  5 10  1  0  0  0  0
  6  7  1  0  0  0  0
  7  8  2  0  0  0  0
  8  9  1  0  0  0  0
  8 36  1  0  0  0  0
  9 10  2  0  0  0  0
  9 37  1  0  0  0  0
 11 12  2  0  0  0  0
 11 14  1  0  0  0  0
 12 13  1  0  0  0  0
 12 38  1  0  0  0  0
 13 27  2  0  0  0  0
 13 39  1  0  0  0  0
 14 26  2  0  0  0  0
 14 40  1  0  0  0  0
 15 16  1  0  0  0  0
 15 41  1  0  0  0  0
 16 17  2  0  0  0  0
 16 21  1  0  0  0  0
 17 18  1  0  0  0  0
 17 42  1  0  0  0  0
 18 19  2  0  0  0  0
 19 20  1  0  0  0  0
 19 43  1  0  0  0  0
 20 21  2  0  0  0  0
 20 44  1  0  0  0  0
 21 22  1  0  0  0  0
 22 23  2  0  0  0  0
 22 24  2  0  0  0  0
 22 25  1  0  0  0  0
 25 45  1  0  0  0  0
 25 46  1  0  0  0  0
 25 47  1  0  0  0  0
 26 27  1  0  0  0  0
 26 30  1  0  0  0  0
 27 28  1  0  0  0  0
 28 29  2  0  0  0  0
 28 48  1  0  0  0  0
 29 30  1  0  0  0  0
 29 49  1  0  0  0  0
 30 31  1  0  0  0  0
 31 32  1  0  0  0  0
 31 50  1  0  0  0  0
 31 51  1  0  0  0  0
 32 33  1  0  0  0  0
 32 52  1  0  0  0  0
 32 53  1  0  0  0  0
 33 54  1  0  0  0  0
 33 55  1  0  0  0  0
 33 56  1  0  0  0  0
M  END
>  <ID>
53

>  <IC50[uM]>
7.425

$$$$
