@<TRIPOS>MOLECULE
54
 56 60 0 0 0
SMALL
GASTEIGER
****
Structure written by MMmdl.
@<TRIPOS>ATOM
      1 C          91.6126   48.3353  266.6703 C.ar    1  LIG1        0.0341
      2 C          91.9733   49.5324  267.2808 C.ar    1  LIG1       -0.0307
      3 C          93.2894   49.7956  267.6797 C.ar    1  LIG1        0.0114
      4 C          92.5692   47.3436  266.4692 C.ar    1  LIG1       -0.0130
      5 C          93.8975   47.5406  266.9051 C.ar    1  LIG1        0.0915
      6 C          94.2749   48.7798  267.5080 C.ar    1  LIG1        0.0969
      7 N          95.5631   48.9638  267.9368 N.ar    1  LIG1       -0.2513
      8 C          96.4503   47.9554  267.7480 C.ar    1  LIG1        0.0464
      9 C          96.0641   46.7442  267.1890 C.ar    1  LIG1        0.0464
     10 N          94.7980   46.5299  266.7611 N.ar    1  LIG1       -0.2519
     11 N          90.2745   48.1250  266.3159 N.pl3   1  LIG1       -0.3118
     12 C          93.6036   51.0937  268.3225 C.ar    1  LIG1       -0.0138
     13 C          94.5719   51.9443  267.7904 C.ar    1  LIG1       -0.0533
     14 C          94.8678   53.1797  268.3665 C.ar    1  LIG1       -0.0520
     15 C          92.9154   51.4322  269.4867 C.ar    1  LIG1       -0.0298
     16 C          93.2133   52.6617  270.0729 C.ar    1  LIG1        0.0499
     17 C          94.1579   53.5698  269.5118 C.ar    1  LIG1       -0.0001
     18 C          94.1541   54.7093  270.3309 C.ar    1  LIG1       -0.0364
     19 C          93.2816   54.4947  271.3567 C.ar    1  LIG1        0.0060
     20 N          92.7302   53.2407  271.2278 N.ar    1  LIG1       -0.3441
     21 C          91.7687   52.6196  272.1281 C.3     1  LIG1        0.0289
     22 C          91.6695   53.3551  273.4819 C.3     1  LIG1       -0.0445
     23 C          90.4002   52.4193  271.3856 C.3     1  LIG1       -0.0445
     24 C          89.7164   47.3465  265.2896 C.ar    1  LIG1        0.0748
     25 C          90.4207   47.1272  264.0986 C.ar    1  LIG1        0.0505
     26 N          89.9174   46.4367  263.0451 N.ar    1  LIG1       -0.2613
     27 C          88.6611   45.9399  263.1652 C.ar    1  LIG1        0.0295
     28 C          87.8879   46.0951  264.3148 C.ar    1  LIG1       -0.0169
     29 C          88.4239   46.8032  265.3975 C.ar    1  LIG1        0.1118
     30 S          87.4822   46.8958  266.9257 S.O2    1  LIG1       -0.0040
     31 O          86.1360   46.3755  266.6687 O.2     1  LIG1       -0.1696
     32 O          87.6578   48.2428  267.4781 O.2     1  LIG1       -0.1696
     33 C          88.3798   45.6764  268.0436 C.3     1  LIG1        0.0597
     34 H          91.2145   50.2854  267.4442 H       1  LIG1        0.0643
     35 H          92.2845   46.3951  266.0360 H       1  LIG1        0.0658
     36 H          97.4713   48.1452  268.0452 H       1  LIG1        0.0845
     37 H          96.7707   45.9444  267.0243 H       1  LIG1        0.0845
     38 H          89.5780   48.6109  266.8719 H       1  LIG1        0.1522
     39 H          95.1002   51.6545  266.8958 H       1  LIG1        0.0624
     40 H          95.6157   53.8276  267.9300 H       1  LIG1        0.0624
     41 H          92.1877   50.7543  269.9089 H       1  LIG1        0.0644
     42 H          94.7529   55.6243  270.2202 H       1  LIG1        0.0639
     43 H          93.0161   55.0955  272.1922 H       1  LIG1        0.0809
     44 H          92.1536   51.6237  272.3554 H       1  LIG1        0.0522
     45 H          92.5476   53.6471  274.0500 H       1  LIG1        0.0249
     46 H          91.1124   52.7122  274.1928 H       1  LIG1        0.0249
     47 H          91.2885   54.3558  273.2473 H       1  LIG1        0.0249
     48 H          90.5061   51.8838  270.4532 H       1  LIG1        0.0249
     49 H          89.8247   53.2499  271.0095 H       1  LIG1        0.0249
     50 H          89.6958   51.8977  272.0227 H       1  LIG1        0.0249
     51 H          91.4171   47.5177  263.9750 H       1  LIG1        0.0849
     52 H          88.2766   45.3843  262.3234 H       1  LIG1        0.0830
     53 H          86.9020   45.6504  264.3737 H       1  LIG1        0.0652
     54 H          87.8636   45.6303  269.0016 H       1  LIG1        0.0468
     55 H          89.4070   46.0138  268.1769 H       1  LIG1        0.0468
     56 H          88.3633   44.6962  267.5702 H       1  LIG1        0.0468
@<TRIPOS>BOND
     1     1     2   ar
     2     1     4   ar
     3     1    11    1
     4     2     3   ar
     5     2    34    1
     6     3     6   ar
     7     3    12    1
     8     4     5   ar
     9     4    35    1
    10     5     6   ar
    11     5    10   ar
    12     6     7   ar
    13     7     8   ar
    14     8     9   ar
    15     8    36    1
    16     9    10   ar
    17     9    37    1
    18    11    24    1
    19    11    38    1
    20    12    13   ar
    21    12    15   ar
    22    13    14   ar
    23    13    39    1
    24    14    17   ar
    25    14    40    1
    26    15    16   ar
    27    15    41    1
    28    16    17   ar
    29    16    20   ar
    30    17    18   ar
    31    18    19   ar
    32    18    42    1
    33    19    20   ar
    34    19    43    1
    35    20    21    1
    36    21    22    1
    37    21    23    1
    38    21    44    1
    39    22    45    1
    40    22    46    1
    41    22    47    1
    42    23    48    1
    43    23    49    1
    44    23    50    1
    45    24    25   ar
    46    24    29   ar
    47    25    26   ar
    48    25    51    1
    49    26    27   ar
    50    27    28   ar
    51    27    52    1
    52    28    29   ar
    53    28    53    1
    54    29    30    1
    55    30    31    2
    56    30    32    2
    57    30    33    1
    58    33    54    1
    59    33    55    1
    60    33    56    1
