54
 OpenBabel02152110423D
Structure written by MMmdl.
 56 60  0  0  1  0  0  0  0  0999 V2000
   91.6126   48.3353  266.6703 C   0  0  0  0  0  0  0  0  0  0  0  0
   91.9733   49.5324  267.2808 C   0  0  0  0  0  0  0  0  0  0  0  0
   93.2894   49.7956  267.6797 C   0  0  0  0  0  0  0  0  0  0  0  0
   92.5692   47.3436  266.4692 C   0  0  0  0  0  0  0  0  0  0  0  0
   93.8975   47.5406  266.9051 C   0  0  0  0  0  0  0  0  0  0  0  0
   94.2749   48.7798  267.5080 C   0  0  0  0  0  0  0  0  0  0  0  0
   95.5631   48.9638  267.9368 N   0  0  0  0  0  0  0  0  0  0  0  0
   96.4503   47.9554  267.7480 C   0  0  0  0  0  0  0  0  0  0  0  0
   96.0641   46.7442  267.1890 C   0  0  0  0  0  0  0  0  0  0  0  0
   94.7980   46.5299  266.7611 N   0  0  0  0  0  0  0  0  0  0  0  0
   90.2745   48.1250  266.3159 N   0  0  0  0  0  0  0  0  0  0  0  0
   93.6036   51.0937  268.3225 C   0  0  0  0  0  0  0  0  0  0  0  0
   94.5719   51.9443  267.7904 C   0  0  0  0  0  0  0  0  0  0  0  0
   94.8678   53.1797  268.3665 C   0  0  0  0  0  0  0  0  0  0  0  0
   92.9154   51.4322  269.4867 C   0  0  0  0  0  0  0  0  0  0  0  0
   93.2133   52.6617  270.0729 C   0  0  0  0  0  0  0  0  0  0  0  0
   94.1579   53.5698  269.5118 C   0  0  0  0  0  0  0  0  0  0  0  0
   94.1541   54.7093  270.3309 C   0  0  0  0  0  0  0  0  0  0  0  0
   93.2816   54.4947  271.3567 C   0  0  0  0  0  0  0  0  0  0  0  0
   92.7302   53.2407  271.2278 N   0  0  0  0  0  0  0  0  0  0  0  0
   91.7687   52.6196  272.1281 C   0  0  0  0  0  0  0  0  0  0  0  0
   91.6695   53.3551  273.4819 C   0  0  0  0  0  0  0  0  0  0  0  0
   90.4002   52.4193  271.3856 C   0  0  0  0  0  0  0  0  0  0  0  0
   89.7164   47.3465  265.2896 C   0  0  0  0  0  0  0  0  0  0  0  0
   90.4207   47.1272  264.0986 C   0  0  0  0  0  0  0  0  0  0  0  0
   89.9174   46.4367  263.0451 N   0  0  0  0  0  0  0  0  0  0  0  0
   88.6611   45.9399  263.1652 C   0  0  0  0  0  0  0  0  0  0  0  0
   87.8879   46.0951  264.3148 C   0  0  0  0  0  0  0  0  0  0  0  0
   88.4239   46.8032  265.3975 C   0  0  0  0  0  0  0  0  0  0  0  0
   87.4822   46.8958  266.9257 S   0  0  0  0  0  0  0  0  0  0  0  0
   86.1360   46.3755  266.6687 O   0  0  0  0  0  0  0  0  0  0  0  0
   87.6578   48.2428  267.4781 O   0  0  0  0  0  0  0  0  0  0  0  0
   88.3798   45.6764  268.0436 C   0  0  0  0  0  0  0  0  0  0  0  0
   91.2145   50.2854  267.4442 H   0  0  0  0  0  0  0  0  0  0  0  0
   92.2845   46.3951  266.0360 H   0  0  0  0  0  0  0  0  0  0  0  0
   97.4713   48.1452  268.0452 H   0  0  0  0  0  0  0  0  0  0  0  0
   96.7707   45.9444  267.0243 H   0  0  0  0  0  0  0  0  0  0  0  0
   89.5780   48.6109  266.8719 H   0  0  0  0  0  0  0  0  0  0  0  0
   95.1002   51.6545  266.8958 H   0  0  0  0  0  0  0  0  0  0  0  0
   95.6157   53.8276  267.9300 H   0  0  0  0  0  0  0  0  0  0  0  0
   92.1877   50.7543  269.9089 H   0  0  0  0  0  0  0  0  0  0  0  0
   94.7529   55.6243  270.2202 H   0  0  0  0  0  0  0  0  0  0  0  0
   93.0161   55.0955  272.1922 H   0  0  0  0  0  0  0  0  0  0  0  0
   92.1536   51.6237  272.3554 H   0  0  0  0  0  0  0  0  0  0  0  0
   92.5476   53.6471  274.0500 H   0  0  0  0  0  0  0  0  0  0  0  0
   91.1124   52.7122  274.1928 H   0  0  0  0  0  0  0  0  0  0  0  0
   91.2885   54.3558  273.2473 H   0  0  0  0  0  0  0  0  0  0  0  0
   90.5061   51.8838  270.4532 H   0  0  0  0  0  0  0  0  0  0  0  0
   89.8247   53.2499  271.0095 H   0  0  0  0  0  0  0  0  0  0  0  0
   89.6958   51.8977  272.0227 H   0  0  0  0  0  0  0  0  0  0  0  0
   91.4171   47.5177  263.9750 H   0  0  0  0  0  0  0  0  0  0  0  0
   88.2766   45.3843  262.3234 H   0  0  0  0  0  0  0  0  0  0  0  0
   86.9020   45.6504  264.3737 H   0  0  0  0  0  0  0  0  0  0  0  0
   87.8636   45.6303  269.0016 H   0  0  0  0  0  0  0  0  0  0  0  0
   89.4070   46.0138  268.1769 H   0  0  0  0  0  0  0  0  0  0  0  0
   88.3633   44.6962  267.5702 H   0  0  0  0  0  0  0  0  0  0  0  0
  1  2  2  0  0  0  0
  1  4  1  0  0  0  0
  1 11  1  0  0  0  0
  2  3  1  0  0  0  0
  2 34  1  0  0  0  0
  3  6  2  0  0  0  0
  3 12  1  0  0  0  0
  4  5  2  0  0  0  0
  4 35  1  0  0  0  0
  5  6  1  0  0  0  0
  5 10  1  0  0  0  0
  6  7  1  0  0  0  0
  7  8  2  0  0  0  0
  8  9  1  0  0  0  0
  8 36  1  0  0  0  0
  9 10  2  0  0  0  0
  9 37  1  0  0  0  0
 11 24  1  0  0  0  0
 11 38  1  0  0  0  0
 12 13  2  0  0  0  0
 12 15  1  0  0  0  0
 13 14  1  0  0  0  0
 13 39  1  0  0  0  0
 14 17  2  0  0  0  0
 14 40  1  0  0  0  0
 15 16  2  0  0  0  0
 15 41  1  0  0  0  0
 16 17  1  0  0  0  0
 16 20  1  0  0  0  0
 17 18  1  0  0  0  0
 18 19  2  0  0  0  0
 18 42  1  0  0  0  0
 19 20  1  0  0  0  0
 19 43  1  0  0  0  0
 20 21  1  0  0  0  0
 21 22  1  0  0  0  0
 21 23  1  0  0  0  0
 21 44  1  0  0  0  0
 22 45  1  0  0  0  0
 22 46  1  0  0  0  0
 22 47  1  0  0  0  0
 23 48  1  0  0  0  0
 23 49  1  0  0  0  0
 23 50  1  0  0  0  0
 24 25  2  0  0  0  0
 24 29  1  0  0  0  0
 25 26  1  0  0  0  0
 25 51  1  0  0  0  0
 26 27  2  0  0  0  0
 27 28  1  0  0  0  0
 27 52  1  0  0  0  0
 28 29  2  0  0  0  0
 28 53  1  0  0  0  0
 29 30  1  0  0  0  0
 30 31  2  0  0  0  0
 30 32  2  0  0  0  0
 30 33  1  0  0  0  0
 33 54  1  0  0  0  0
 33 55  1  0  0  0  0
 33 56  1  0  0  0  0
M  END
>  <ID>
54

>  <IC50[uM]>
1.01

$$$$
