55
 OpenBabel02152110423D
Structure written by MMmdl.
 50 54  0  0  1  0  0  0  0  0999 V2000
   91.6118   48.3366  266.6739 C   0  0  0  0  0  0  0  0  0  0  0  0
   91.9698   49.5336  267.2864 C   0  0  0  0  0  0  0  0  0  0  0  0
   93.2850   49.8006  267.6832 C   0  0  0  0  0  0  0  0  0  0  0  0
   92.5678   47.3462  266.4685 C   0  0  0  0  0  0  0  0  0  0  0  0
   93.8944   47.5432  266.9034 C   0  0  0  0  0  0  0  0  0  0  0  0
   94.2719   48.7828  267.5077 C   0  0  0  0  0  0  0  0  0  0  0  0
   95.5609   48.9661  267.9314 N   0  0  0  0  0  0  0  0  0  0  0  0
   96.4476   47.9576  267.7393 C   0  0  0  0  0  0  0  0  0  0  0  0
   96.0612   46.7472  267.1782 C   0  0  0  0  0  0  0  0  0  0  0  0
   94.7955   46.5340  266.7522 N   0  0  0  0  0  0  0  0  0  0  0  0
   90.2745   48.1296  266.3175 N   0  0  0  0  0  0  0  0  0  0  0  0
   93.5938   51.0998  268.3264 C   0  0  0  0  0  0  0  0  0  0  0  0
   94.5697   51.9459  267.7912 C   0  0  0  0  0  0  0  0  0  0  0  0
   94.8659   53.1774  268.3682 C   0  0  0  0  0  0  0  0  0  0  0  0
   92.8971   51.4508  269.4842 C   0  0  0  0  0  0  0  0  0  0  0  0
   93.2083   52.6701  270.0801 C   0  0  0  0  0  0  0  0  0  0  0  0
   94.1610   53.5698  269.5192 C   0  0  0  0  0  0  0  0  0  0  0  0
   94.1614   54.7332  270.3565 C   0  0  0  0  0  0  0  0  0  0  0  0
   93.2770   54.4957  271.3795 C   0  0  0  0  0  0  0  0  0  0  0  0
   92.7328   53.2443  271.2449 N   0  0  0  0  0  0  0  0  0  0  0  0
   91.8103   52.6326  272.1899 C   0  0  0  0  0  0  0  0  0  0  0  0
   89.7167   47.3494  265.2904 C   0  0  0  0  0  0  0  0  0  0  0  0
   90.4217   47.1254  264.0999 C   0  0  0  0  0  0  0  0  0  0  0  0
   89.9191   46.4337  263.0465 N   0  0  0  0  0  0  0  0  0  0  0  0
   88.6626   45.9393  263.1648 C   0  0  0  0  0  0  0  0  0  0  0  0
   87.8878   46.0972  264.3127 C   0  0  0  0  0  0  0  0  0  0  0  0
   88.4240   46.8050  265.3972 C   0  0  0  0  0  0  0  0  0  0  0  0
   87.4806   46.8913  266.9254 S   0  0  0  0  0  0  0  0  0  0  0  0
   86.1391   46.3662  266.6675 O   0  0  0  0  0  0  0  0  0  0  0  0
   87.6492   48.2412  267.4790 O   0  0  0  0  0  0  0  0  0  0  0  0
   88.3838   45.6765  268.0468 C   0  0  0  0  0  0  0  0  0  0  0  0
   95.8038   53.9727  267.8010 F   0  0  0  0  0  0  0  0  0  0  0  0
   91.2097   50.2861  267.4498 H   0  0  0  0  0  0  0  0  0  0  0  0
   92.2873   46.4001  266.0276 H   0  0  0  0  0  0  0  0  0  0  0  0
   97.4668   48.1419  268.0435 H   0  0  0  0  0  0  0  0  0  0  0  0
   96.7689   45.9467  267.0182 H   0  0  0  0  0  0  0  0  0  0  0  0
   89.5852   48.6214  266.8768 H   0  0  0  0  0  0  0  0  0  0  0  0
   95.1005   51.6570  266.8939 H   0  0  0  0  0  0  0  0  0  0  0  0
   92.1487   50.7992  269.9119 H   0  0  0  0  0  0  0  0  0  0  0  0
   94.7728   55.6120  270.2423 H   0  0  0  0  0  0  0  0  0  0  0  0
   92.9987   55.1122  272.2199 H   0  0  0  0  0  0  0  0  0  0  0  0
   90.8758   52.3918  271.6861 H   0  0  0  0  0  0  0  0  0  0  0  0
   91.6098   53.2996  273.0302 H   0  0  0  0  0  0  0  0  0  0  0  0
   92.2492   51.7136  272.5787 H   0  0  0  0  0  0  0  0  0  0  0  0
   91.4224   47.5032  263.9725 H   0  0  0  0  0  0  0  0  0  0  0  0
   88.2774   45.3841  262.3232 H   0  0  0  0  0  0  0  0  0  0  0  0
   86.9004   45.6554  264.3643 H   0  0  0  0  0  0  0  0  0  0  0  0
   87.8695   45.6352  269.0056 H   0  0  0  0  0  0  0  0  0  0  0  0
   89.4113   46.0126  268.1793 H   0  0  0  0  0  0  0  0  0  0  0  0
   88.3656   44.6930  267.5796 H   0  0  0  0  0  0  0  0  0  0  0  0
  1  2  2  0  0  0  0
  1  4  1  0  0  0  0
  1 11  1  0  0  0  0
  2  3  1  0  0  0  0
  2 33  1  0  0  0  0
  3  6  2  0  0  0  0
  3 12  1  0  0  0  0
  4  5  2  0  0  0  0
  4 34  1  0  0  0  0
  5  6  1  0  0  0  0
  5 10  1  0  0  0  0
  6  7  1  0  0  0  0
  7  8  2  0  0  0  0
  8  9  1  0  0  0  0
  8 35  1  0  0  0  0
  9 10  2  0  0  0  0
  9 36  1  0  0  0  0
 11 22  1  0  0  0  0
 11 37  1  0  0  0  0
 12 13  2  0  0  0  0
 12 15  1  0  0  0  0
 13 14  1  0  0  0  0
 13 38  1  0  0  0  0
 14 17  2  0  0  0  0
 14 32  1  0  0  0  0
 15 16  2  0  0  0  0
 15 39  1  0  0  0  0
 16 17  1  0  0  0  0
 16 20  1  0  0  0  0
 17 18  1  0  0  0  0
 18 19  2  0  0  0  0
 18 40  1  0  0  0  0
 19 20  1  0  0  0  0
 19 41  1  0  0  0  0
 20 21  1  0  0  0  0
 21 42  1  0  0  0  0
 21 43  1  0  0  0  0
 21 44  1  0  0  0  0
 22 23  2  0  0  0  0
 22 27  1  0  0  0  0
 23 24  1  0  0  0  0
 23 45  1  0  0  0  0
 24 25  2  0  0  0  0
 25 26  1  0  0  0  0
 25 46  1  0  0  0  0
 26 27  2  0  0  0  0
 26 47  1  0  0  0  0
 27 28  1  0  0  0  0
 28 29  2  0  0  0  0
 28 30  2  0  0  0  0
 28 31  1  0  0  0  0
 31 48  1  0  0  0  0
 31 49  1  0  0  0  0
 31 50  1  0  0  0  0
M  END
>  <ID>
55

>  <IC50[uM]>
0.016

$$$$
