@<TRIPOS>MOLECULE
56
 53 57 0 0 0
SMALL
GASTEIGER
****
Structure written by MMmdl.
@<TRIPOS>ATOM
      1 C          93.2875   49.7899  267.6817 C.ar    1  LIG1        0.0114
      2 C          92.5639   47.3419  266.4806 C.ar    1  LIG1       -0.0130
      3 C          91.6077   48.3343  266.6701 C.ar    1  LIG1        0.0341
      4 C          91.9668   49.5310  267.2780 C.ar    1  LIG1       -0.0307
      5 C          93.8923   47.5378  266.9074 C.ar    1  LIG1        0.0915
      6 C          94.2733   48.7754  267.5078 C.ar    1  LIG1        0.0969
      7 N          95.5604   48.9644  267.9352 N.ar    1  LIG1       -0.2513
      8 C          96.4505   47.9552  267.7478 C.ar    1  LIG1        0.0464
      9 C          96.0626   46.7471  267.1815 C.ar    1  LIG1        0.0464
     10 N          94.7984   46.5302  266.7568 N.ar    1  LIG1       -0.2519
     11 C          93.5872   51.0916  268.3371 C.ar    1  LIG1       -0.0135
     12 C          94.5607   51.9338  267.7811 C.ar    1  LIG1       -0.0504
     13 C          94.8501   53.1823  268.3498 C.ar    1  LIG1       -0.0407
     14 C          92.8941   51.4456  269.4876 C.ar    1  LIG1       -0.0298
     15 N          90.2744   48.1264  266.3145 N.pl3   1  LIG1       -0.3118
     16 C          89.7159   47.3451  265.2886 C.ar    1  LIG1        0.0748
     17 C          90.4198   47.1284  264.0960 C.ar    1  LIG1        0.0505
     18 N          89.9137   46.4353  263.0457 N.ar    1  LIG1       -0.2613
     19 C          88.6627   45.9369  263.1677 C.ar    1  LIG1        0.0295
     20 C          87.8911   46.0926  264.3161 C.ar    1  LIG1       -0.0169
     21 C          88.4236   46.8007  265.4015 C.ar    1  LIG1        0.1118
     22 S          87.4795   46.8934  266.9237 S.O2    1  LIG1       -0.0040
     23 O          86.1396   46.3756  266.6690 O.2     1  LIG1       -0.1696
     24 O          87.6540   48.2479  267.4799 O.2     1  LIG1       -0.1696
     25 C          88.3811   45.6759  268.0440 C.3     1  LIG1        0.0597
     26 C          93.1885   52.6594  270.0906 C.ar    1  LIG1        0.0496
     27 C          94.1456   53.5742  269.5213 C.ar    1  LIG1        0.0028
     28 C          94.1354   54.7290  270.3575 C.ar    1  LIG1       -0.0362
     29 C          93.2772   54.4881  271.4048 C.ar    1  LIG1        0.0054
     30 N          92.7219   53.2385  271.2473 N.ar    1  LIG1       -0.3497
     31 C          91.7905   52.6217  272.1984 C.3     1  LIG1        0.0119
     32 C          95.8952   54.0681  267.6802 C.3     1  LIG1       -0.0391
     33 H          92.2925   46.4013  266.0331 H       1  LIG1        0.0658
     34 H          91.2134   50.2862  267.4482 H       1  LIG1        0.0643
     35 H          97.4693   48.1426  268.0450 H       1  LIG1        0.0845
     36 H          96.7702   45.9454  267.0266 H       1  LIG1        0.0845
     37 H          95.0864   51.6342  266.8950 H       1  LIG1        0.0626
     38 H          92.1681   50.7999  269.9073 H       1  LIG1        0.0644
     39 H          89.5875   48.6177  266.8787 H       1  LIG1        0.1522
     40 H          91.4203   47.5082  263.9713 H       1  LIG1        0.0849
     41 H          88.2769   45.3851  262.3238 H       1  LIG1        0.0830
     42 H          86.9026   45.6536  264.3652 H       1  LIG1        0.0652
     43 H          87.8674   45.6321  268.9993 H       1  LIG1        0.0468
     44 H          89.4061   46.0126  268.1806 H       1  LIG1        0.0468
     45 H          88.3636   44.6924  267.5725 H       1  LIG1        0.0468
     46 H          94.7512   55.6085  270.2439 H       1  LIG1        0.0639
     47 H          93.0100   55.0853  272.2451 H       1  LIG1        0.0809
     48 H          92.2515   51.6982  272.5723 H       1  LIG1        0.0456
     49 H          90.8611   52.3901  271.6746 H       1  LIG1        0.0456
     50 H          91.6098   53.3004  273.0211 H       1  LIG1        0.0456
     51 H          96.2694   53.6372  266.7661 H       1  LIG1        0.0278
     52 H          96.7532   54.2169  268.3024 H       1  LIG1        0.0278
     53 H          95.4728   55.0506  267.4370 H       1  LIG1        0.0278
@<TRIPOS>BOND
     1     1     4   ar
     2     1     6   ar
     3     1    11    1
     4     2     3   ar
     5     2     5   ar
     6     2    33    1
     7     3     4   ar
     8     3    15    1
     9     4    34    1
    10     5     6   ar
    11     5    10   ar
    12     6     7   ar
    13     7     8   ar
    14     8     9   ar
    15     8    35    1
    16     9    10   ar
    17     9    36    1
    18    11    12   ar
    19    11    14   ar
    20    12    13   ar
    21    12    37    1
    22    13    27   ar
    23    13    32    1
    24    14    26   ar
    25    14    38    1
    26    15    16    1
    27    15    39    1
    28    16    17   ar
    29    16    21   ar
    30    17    18   ar
    31    17    40    1
    32    18    19   ar
    33    19    20   ar
    34    19    41    1
    35    20    21   ar
    36    20    42    1
    37    21    22    1
    38    22    23    2
    39    22    24    2
    40    22    25    1
    41    25    43    1
    42    25    44    1
    43    25    45    1
    44    26    27   ar
    45    26    30   ar
    46    27    28   ar
    47    28    29   ar
    48    28    46    1
    49    29    30   ar
    50    29    47    1
    51    30    31    1
    52    31    48    1
    53    31    49    1
    54    31    50    1
    55    32    51    1
    56    32    52    1
    57    32    53    1
