56
 OpenBabel02152110423D
Structure written by MMmdl.
 53 57  0  0  1  0  0  0  0  0999 V2000
   93.2875   49.7899  267.6817 C   0  0  0  0  0  0  0  0  0  0  0  0
   92.5639   47.3419  266.4806 C   0  0  0  0  0  0  0  0  0  0  0  0
   91.6077   48.3343  266.6701 C   0  0  0  0  0  0  0  0  0  0  0  0
   91.9668   49.5310  267.2780 C   0  0  0  0  0  0  0  0  0  0  0  0
   93.8923   47.5378  266.9074 C   0  0  0  0  0  0  0  0  0  0  0  0
   94.2733   48.7754  267.5078 C   0  0  0  0  0  0  0  0  0  0  0  0
   95.5604   48.9644  267.9352 N   0  0  0  0  0  0  0  0  0  0  0  0
   96.4505   47.9552  267.7478 C   0  0  0  0  0  0  0  0  0  0  0  0
   96.0626   46.7471  267.1815 C   0  0  0  0  0  0  0  0  0  0  0  0
   94.7984   46.5302  266.7568 N   0  0  0  0  0  0  0  0  0  0  0  0
   93.5872   51.0916  268.3371 C   0  0  0  0  0  0  0  0  0  0  0  0
   94.5607   51.9338  267.7811 C   0  0  0  0  0  0  0  0  0  0  0  0
   94.8501   53.1823  268.3498 C   0  0  0  0  0  0  0  0  0  0  0  0
   92.8941   51.4456  269.4876 C   0  0  0  0  0  0  0  0  0  0  0  0
   90.2744   48.1264  266.3145 N   0  0  0  0  0  0  0  0  0  0  0  0
   89.7159   47.3451  265.2886 C   0  0  0  0  0  0  0  0  0  0  0  0
   90.4198   47.1284  264.0960 C   0  0  0  0  0  0  0  0  0  0  0  0
   89.9137   46.4353  263.0457 N   0  0  0  0  0  0  0  0  0  0  0  0
   88.6627   45.9369  263.1677 C   0  0  0  0  0  0  0  0  0  0  0  0
   87.8911   46.0926  264.3161 C   0  0  0  0  0  0  0  0  0  0  0  0
   88.4236   46.8007  265.4015 C   0  0  0  0  0  0  0  0  0  0  0  0
   87.4795   46.8934  266.9237 S   0  0  0  0  0  0  0  0  0  0  0  0
   86.1396   46.3756  266.6690 O   0  0  0  0  0  0  0  0  0  0  0  0
   87.6540   48.2479  267.4799 O   0  0  0  0  0  0  0  0  0  0  0  0
   88.3811   45.6759  268.0440 C   0  0  0  0  0  0  0  0  0  0  0  0
   93.1885   52.6594  270.0906 C   0  0  0  0  0  0  0  0  0  0  0  0
   94.1456   53.5742  269.5213 C   0  0  0  0  0  0  0  0  0  0  0  0
   94.1354   54.7290  270.3575 C   0  0  0  0  0  0  0  0  0  0  0  0
   93.2772   54.4881  271.4048 C   0  0  0  0  0  0  0  0  0  0  0  0
   92.7219   53.2385  271.2473 N   0  0  0  0  0  0  0  0  0  0  0  0
   91.7905   52.6217  272.1984 C   0  0  0  0  0  0  0  0  0  0  0  0
   95.8952   54.0681  267.6802 C   0  0  0  0  0  0  0  0  0  0  0  0
   92.2925   46.4013  266.0331 H   0  0  0  0  0  0  0  0  0  0  0  0
   91.2134   50.2862  267.4482 H   0  0  0  0  0  0  0  0  0  0  0  0
   97.4693   48.1426  268.0450 H   0  0  0  0  0  0  0  0  0  0  0  0
   96.7702   45.9454  267.0266 H   0  0  0  0  0  0  0  0  0  0  0  0
   95.0864   51.6342  266.8950 H   0  0  0  0  0  0  0  0  0  0  0  0
   92.1681   50.7999  269.9073 H   0  0  0  0  0  0  0  0  0  0  0  0
   89.5875   48.6177  266.8787 H   0  0  0  0  0  0  0  0  0  0  0  0
   91.4203   47.5082  263.9713 H   0  0  0  0  0  0  0  0  0  0  0  0
   88.2769   45.3851  262.3238 H   0  0  0  0  0  0  0  0  0  0  0  0
   86.9026   45.6536  264.3652 H   0  0  0  0  0  0  0  0  0  0  0  0
   87.8674   45.6321  268.9993 H   0  0  0  0  0  0  0  0  0  0  0  0
   89.4061   46.0126  268.1806 H   0  0  0  0  0  0  0  0  0  0  0  0
   88.3636   44.6924  267.5725 H   0  0  0  0  0  0  0  0  0  0  0  0
   94.7512   55.6085  270.2439 H   0  0  0  0  0  0  0  0  0  0  0  0
   93.0100   55.0853  272.2451 H   0  0  0  0  0  0  0  0  0  0  0  0
   92.2515   51.6982  272.5723 H   0  0  0  0  0  0  0  0  0  0  0  0
   90.8611   52.3901  271.6746 H   0  0  0  0  0  0  0  0  0  0  0  0
   91.6098   53.3004  273.0211 H   0  0  0  0  0  0  0  0  0  0  0  0
   96.2694   53.6372  266.7661 H   0  0  0  0  0  0  0  0  0  0  0  0
   96.7532   54.2169  268.3024 H   0  0  0  0  0  0  0  0  0  0  0  0
   95.4728   55.0506  267.4370 H   0  0  0  0  0  0  0  0  0  0  0  0
  1  4  1  0  0  0  0
  1  6  2  0  0  0  0
  1 11  1  0  0  0  0
  2  3  1  0  0  0  0
  2  5  2  0  0  0  0
  2 33  1  0  0  0  0
  3  4  2  0  0  0  0
  3 15  1  0  0  0  0
  4 34  1  0  0  0  0
  5  6  1  0  0  0  0
  5 10  1  0  0  0  0
  6  7  1  0  0  0  0
  7  8  2  0  0  0  0
  8  9  1  0  0  0  0
  8 35  1  0  0  0  0
  9 10  2  0  0  0  0
  9 36  1  0  0  0  0
 11 12  2  0  0  0  0
 11 14  1  0  0  0  0
 12 13  1  0  0  0  0
 12 37  1  0  0  0  0
 13 27  2  0  0  0  0
 13 32  1  0  0  0  0
 14 26  2  0  0  0  0
 14 38  1  0  0  0  0
 15 16  1  0  0  0  0
 15 39  1  0  0  0  0
 16 17  2  0  0  0  0
 16 21  1  0  0  0  0
 17 18  1  0  0  0  0
 17 40  1  0  0  0  0
 18 19  2  0  0  0  0
 19 20  1  0  0  0  0
 19 41  1  0  0  0  0
 20 21  2  0  0  0  0
 20 42  1  0  0  0  0
 21 22  1  0  0  0  0
 22 23  2  0  0  0  0
 22 24  2  0  0  0  0
 22 25  1  0  0  0  0
 25 43  1  0  0  0  0
 25 44  1  0  0  0  0
 25 45  1  0  0  0  0
 26 27  1  0  0  0  0
 26 30  1  0  0  0  0
 27 28  1  0  0  0  0
 28 29  2  0  0  0  0
 28 46  1  0  0  0  0
 29 30  1  0  0  0  0
 29 47  1  0  0  0  0
 30 31  1  0  0  0  0
 31 48  1  0  0  0  0
 31 49  1  0  0  0  0
 31 50  1  0  0  0  0
 32 51  1  0  0  0  0
 32 52  1  0  0  0  0
 32 53  1  0  0  0  0
M  END
>  <ID>
56

>  <IC50[uM]>
0.018

$$$$
