@<TRIPOS>MOLECULE
57
 50 54 0 0 0
SMALL
GASTEIGER
****
Structure written by MMmdl.
@<TRIPOS>ATOM
      1 C          93.2863   49.8046  267.6850 C.ar    1  LIG1        0.0114
      2 C          92.5683   47.3483  266.4663 C.ar    1  LIG1       -0.0130
      3 C          91.6135   48.3386  266.6756 C.ar    1  LIG1        0.0341
      4 C          91.9715   49.5355  267.2896 C.ar    1  LIG1       -0.0307
      5 C          93.8941   47.5445  266.9029 C.ar    1  LIG1        0.0915
      6 C          94.2723   48.7844  267.5084 C.ar    1  LIG1        0.0969
      7 N          95.5616   48.9663  267.9305 N.ar    1  LIG1       -0.2513
      8 C          96.4473   47.9576  267.7370 C.ar    1  LIG1        0.0464
      9 C          96.0606   46.7470  267.1769 C.ar    1  LIG1        0.0464
     10 N          94.7945   46.5353  266.7507 N.ar    1  LIG1       -0.2519
     11 C          93.5945   51.1040  268.3281 C.ar    1  LIG1       -0.0137
     12 C          94.5736   51.9510  267.7909 C.ar    1  LIG1       -0.0533
     13 C          94.8742   53.1838  268.3688 C.ar    1  LIG1       -0.0520
     14 C          92.8962   51.4518  269.4841 C.ar    1  LIG1       -0.0297
     15 N          90.2751   48.1321  266.3186 N.pl3   1  LIG1       -0.3118
     16 C          89.7173   47.3514  265.2910 C.ar    1  LIG1        0.0748
     17 C          90.4223   47.1244  264.1010 C.ar    1  LIG1        0.0505
     18 N          89.9202   46.4330  263.0469 N.ar    1  LIG1       -0.2613
     19 C          88.6631   45.9395  263.1640 C.ar    1  LIG1        0.0295
     20 C          87.8875   46.0982  264.3114 C.ar    1  LIG1       -0.0169
     21 C          88.4234   46.8064  265.3954 C.ar    1  LIG1        0.1118
     22 S          87.4813   46.8916  266.9240 S.O2    1  LIG1       -0.0040
     23 O          86.1376   46.3636  266.6658 O.2     1  LIG1       -0.1696
     24 O          87.6482   48.2377  267.4791 O.2     1  LIG1       -0.1696
     25 C          88.3853   45.6716  268.0379 C.3     1  LIG1        0.0597
     26 C          93.2144   52.6711  270.0767 C.ar    1  LIG1        0.0544
     27 C          94.1671   53.5709  269.5134 C.ar    1  LIG1        0.0000
     28 C          94.1722   54.7295  270.3422 C.ar    1  LIG1       -0.0363
     29 C          93.2836   54.5053  271.3550 C.ar    1  LIG1        0.0109
     30 N          92.7499   53.2450  271.2433 N.ar    1  LIG1       -0.2910
     31 C          91.7998   52.6492  272.1755 C.3     1  LIG1        0.3201
     32 F          91.8677   53.3117  273.3272 F       1  LIG1       -0.1847
     33 F          90.5872   52.7234  271.6286 F       1  LIG1       -0.1847
     34 H          92.2862   46.4014  266.0263 H       1  LIG1        0.0658
     35 H          91.2115   50.2889  267.4523 H       1  LIG1        0.0643
     36 H          97.4660   48.1411  268.0432 H       1  LIG1        0.0845
     37 H          96.7683   45.9468  267.0162 H       1  LIG1        0.0845
     38 H          95.0991   51.6553  266.8907 H       1  LIG1        0.0624
     39 H          95.6230   53.8288  267.9270 H       1  LIG1        0.0624
     40 H          92.1446   50.8014  269.9124 H       1  LIG1        0.0644
     41 H          89.5853   48.6236  266.8775 H       1  LIG1        0.1522
     42 H          91.4232   47.5010  263.9727 H       1  LIG1        0.0849
     43 H          88.2775   45.3841  262.3232 H       1  LIG1        0.0830
     44 H          86.8996   45.6560  264.3634 H       1  LIG1        0.0652
     45 H          87.8728   45.6348  268.9986 H       1  LIG1        0.0468
     46 H          89.4116   46.0106  268.1755 H       1  LIG1        0.0468
     47 H          88.3662   44.6870  267.5758 H       1  LIG1        0.0468
     48 H          94.7837   55.6164  270.2260 H       1  LIG1        0.0639
     49 H          92.9998   55.1255  272.1927 H       1  LIG1        0.0811
     50 H          92.0494   51.6144  272.3981 H       1  LIG1        0.1280
@<TRIPOS>BOND
     1     1     4   ar
     2     1     6   ar
     3     1    11    1
     4     2     3   ar
     5     2     5   ar
     6     2    34    1
     7     3     4   ar
     8     3    15    1
     9     4    35    1
    10     5     6   ar
    11     5    10   ar
    12     6     7   ar
    13     7     8   ar
    14     8     9   ar
    15     8    36    1
    16     9    10   ar
    17     9    37    1
    18    11    12   ar
    19    11    14   ar
    20    12    13   ar
    21    12    38    1
    22    13    27   ar
    23    13    39    1
    24    14    26   ar
    25    14    40    1
    26    15    16    1
    27    15    41    1
    28    16    17   ar
    29    16    21   ar
    30    17    18   ar
    31    17    42    1
    32    18    19   ar
    33    19    20   ar
    34    19    43    1
    35    20    21   ar
    36    20    44    1
    37    21    22    1
    38    22    23    2
    39    22    24    2
    40    22    25    1
    41    25    45    1
    42    25    46    1
    43    25    47    1
    44    26    27   ar
    45    26    30   ar
    46    27    28   ar
    47    28    29   ar
    48    28    48    1
    49    29    30   ar
    50    29    49    1
    51    30    31    1
    52    31    32    1
    53    31    33    1
    54    31    50    1
