57
 OpenBabel02152110423D
Structure written by MMmdl.
 50 54  0  0  1  0  0  0  0  0999 V2000
   93.2863   49.8046  267.6850 C   0  0  0  0  0  0  0  0  0  0  0  0
   92.5683   47.3483  266.4663 C   0  0  0  0  0  0  0  0  0  0  0  0
   91.6135   48.3386  266.6756 C   0  0  0  0  0  0  0  0  0  0  0  0
   91.9715   49.5355  267.2896 C   0  0  0  0  0  0  0  0  0  0  0  0
   93.8941   47.5445  266.9029 C   0  0  0  0  0  0  0  0  0  0  0  0
   94.2723   48.7844  267.5084 C   0  0  0  0  0  0  0  0  0  0  0  0
   95.5616   48.9663  267.9305 N   0  0  0  0  0  0  0  0  0  0  0  0
   96.4473   47.9576  267.7370 C   0  0  0  0  0  0  0  0  0  0  0  0
   96.0606   46.7470  267.1769 C   0  0  0  0  0  0  0  0  0  0  0  0
   94.7945   46.5353  266.7507 N   0  0  0  0  0  0  0  0  0  0  0  0
   93.5945   51.1040  268.3281 C   0  0  0  0  0  0  0  0  0  0  0  0
   94.5736   51.9510  267.7909 C   0  0  0  0  0  0  0  0  0  0  0  0
   94.8742   53.1838  268.3688 C   0  0  0  0  0  0  0  0  0  0  0  0
   92.8962   51.4518  269.4841 C   0  0  0  0  0  0  0  0  0  0  0  0
   90.2751   48.1321  266.3186 N   0  0  0  0  0  0  0  0  0  0  0  0
   89.7173   47.3514  265.2910 C   0  0  0  0  0  0  0  0  0  0  0  0
   90.4223   47.1244  264.1010 C   0  0  0  0  0  0  0  0  0  0  0  0
   89.9202   46.4330  263.0469 N   0  0  0  0  0  0  0  0  0  0  0  0
   88.6631   45.9395  263.1640 C   0  0  0  0  0  0  0  0  0  0  0  0
   87.8875   46.0982  264.3114 C   0  0  0  0  0  0  0  0  0  0  0  0
   88.4234   46.8064  265.3954 C   0  0  0  0  0  0  0  0  0  0  0  0
   87.4813   46.8916  266.9240 S   0  0  0  0  0  0  0  0  0  0  0  0
   86.1376   46.3636  266.6658 O   0  0  0  0  0  0  0  0  0  0  0  0
   87.6482   48.2377  267.4791 O   0  0  0  0  0  0  0  0  0  0  0  0
   88.3853   45.6716  268.0379 C   0  0  0  0  0  0  0  0  0  0  0  0
   93.2144   52.6711  270.0767 C   0  0  0  0  0  0  0  0  0  0  0  0
   94.1671   53.5709  269.5134 C   0  0  0  0  0  0  0  0  0  0  0  0
   94.1722   54.7295  270.3422 C   0  0  0  0  0  0  0  0  0  0  0  0
   93.2836   54.5053  271.3550 C   0  0  0  0  0  0  0  0  0  0  0  0
   92.7499   53.2450  271.2433 N   0  0  0  0  0  0  0  0  0  0  0  0
   91.7998   52.6492  272.1755 C   0  0  0  0  0  0  0  0  0  0  0  0
   91.8677   53.3117  273.3272 F   0  0  0  0  0  0  0  0  0  0  0  0
   90.5872   52.7234  271.6286 F   0  0  0  0  0  0  0  0  0  0  0  0
   92.2862   46.4014  266.0263 H   0  0  0  0  0  0  0  0  0  0  0  0
   91.2115   50.2889  267.4523 H   0  0  0  0  0  0  0  0  0  0  0  0
   97.4660   48.1411  268.0432 H   0  0  0  0  0  0  0  0  0  0  0  0
   96.7683   45.9468  267.0162 H   0  0  0  0  0  0  0  0  0  0  0  0
   95.0991   51.6553  266.8907 H   0  0  0  0  0  0  0  0  0  0  0  0
   95.6230   53.8288  267.9270 H   0  0  0  0  0  0  0  0  0  0  0  0
   92.1446   50.8014  269.9124 H   0  0  0  0  0  0  0  0  0  0  0  0
   89.5853   48.6236  266.8775 H   0  0  0  0  0  0  0  0  0  0  0  0
   91.4232   47.5010  263.9727 H   0  0  0  0  0  0  0  0  0  0  0  0
   88.2775   45.3841  262.3232 H   0  0  0  0  0  0  0  0  0  0  0  0
   86.8996   45.6560  264.3634 H   0  0  0  0  0  0  0  0  0  0  0  0
   87.8728   45.6348  268.9986 H   0  0  0  0  0  0  0  0  0  0  0  0
   89.4116   46.0106  268.1755 H   0  0  0  0  0  0  0  0  0  0  0  0
   88.3662   44.6870  267.5758 H   0  0  0  0  0  0  0  0  0  0  0  0
   94.7837   55.6164  270.2260 H   0  0  0  0  0  0  0  0  0  0  0  0
   92.9998   55.1255  272.1927 H   0  0  0  0  0  0  0  0  0  0  0  0
   92.0494   51.6144  272.3981 H   0  0  0  0  0  0  0  0  0  0  0  0
  1  4  1  0  0  0  0
  1  6  2  0  0  0  0
  1 11  1  0  0  0  0
  2  3  1  0  0  0  0
  2  5  2  0  0  0  0
  2 34  1  0  0  0  0
  3  4  2  0  0  0  0
  3 15  1  0  0  0  0
  4 35  1  0  0  0  0
  5  6  1  0  0  0  0
  5 10  1  0  0  0  0
  6  7  1  0  0  0  0
  7  8  2  0  0  0  0
  8  9  1  0  0  0  0
  8 36  1  0  0  0  0
  9 10  2  0  0  0  0
  9 37  1  0  0  0  0
 11 12  2  0  0  0  0
 11 14  1  0  0  0  0
 12 13  1  0  0  0  0
 12 38  1  0  0  0  0
 13 27  2  0  0  0  0
 13 39  1  0  0  0  0
 14 26  2  0  0  0  0
 14 40  1  0  0  0  0
 15 16  1  0  0  0  0
 15 41  1  0  0  0  0
 16 17  2  0  0  0  0
 16 21  1  0  0  0  0
 17 18  1  0  0  0  0
 17 42  1  0  0  0  0
 18 19  2  0  0  0  0
 19 20  1  0  0  0  0
 19 43  1  0  0  0  0
 20 21  2  0  0  0  0
 20 44  1  0  0  0  0
 21 22  1  0  0  0  0
 22 23  2  0  0  0  0
 22 24  2  0  0  0  0
 22 25  1  0  0  0  0
 25 45  1  0  0  0  0
 25 46  1  0  0  0  0
 25 47  1  0  0  0  0
 26 27  1  0  0  0  0
 26 30  1  0  0  0  0
 27 28  1  0  0  0  0
 28 29  2  0  0  0  0
 28 48  1  0  0  0  0
 29 30  1  0  0  0  0
 29 49  1  0  0  0  0
 30 31  1  0  0  0  0
 31 32  1  0  0  0  0
 31 33  1  0  0  0  0
 31 50  1  0  0  0  0
M  END
>  <ID>
57

>  <IC50[uM]>
0.021

$$$$
