59
 OpenBabel02152110423D
Structure written by MMmdl.
 49 53  0  0  1  0  0  0  0  0999 V2000
   94.8018   46.5109  266.7810 N   0  0  0  0  0  0  0  0  0  0  0  0
   95.5594   48.9562  267.9425 N   0  0  0  0  0  0  0  0  0  0  0  0
   96.4498   47.9500  267.7562 C   0  0  0  0  0  0  0  0  0  0  0  0
   96.0677   46.7343  267.2047 C   0  0  0  0  0  0  0  0  0  0  0  0
   94.2682   48.7611  267.5159 C   0  0  0  0  0  0  0  0  0  0  0  0
   93.8962   47.5221  266.9192 C   0  0  0  0  0  0  0  0  0  0  0  0
   92.5694   47.3244  266.4788 C   0  0  0  0  0  0  0  0  0  0  0  0
   91.6134   48.3190  266.6708 C   0  0  0  0  0  0  0  0  0  0  0  0
   91.9660   49.5150  267.2751 C   0  0  0  0  0  0  0  0  0  0  0  0
   93.2855   49.7790  267.6840 C   0  0  0  0  0  0  0  0  0  0  0  0
   93.5879   51.0782  268.3122 C   0  0  0  0  0  0  0  0  0  0  0  0
   90.2737   48.1142  266.3097 N   0  0  0  0  0  0  0  0  0  0  0  0
   94.5752   51.9225  267.7816 C   0  0  0  0  0  0  0  0  0  0  0  0
   94.8653   53.1505  268.3816 C   0  0  0  0  0  0  0  0  0  0  0  0
   92.8985   51.4691  269.4627 C   0  0  0  0  0  0  0  0  0  0  0  0
   89.7155   47.3452  265.2853 C   0  0  0  0  0  0  0  0  0  0  0  0
   90.4138   47.1285  264.0886 C   0  0  0  0  0  0  0  0  0  0  0  0
   89.9106   46.4419  263.0368 N   0  0  0  0  0  0  0  0  0  0  0  0
   88.6568   45.9347  263.1618 C   0  0  0  0  0  0  0  0  0  0  0  0
   87.8875   46.0867  264.3143 C   0  0  0  0  0  0  0  0  0  0  0  0
   88.4223   46.8005  265.3926 C   0  0  0  0  0  0  0  0  0  0  0  0
   87.4801   46.8993  266.9179 S   0  0  0  0  0  0  0  0  0  0  0  0
   86.1285   46.4001  266.6610 O   0  0  0  0  0  0  0  0  0  0  0  0
   87.6734   48.2433  267.4795 O   0  0  0  0  0  0  0  0  0  0  0  0
   88.3715   45.6618  268.0181 C   0  0  0  0  0  0  0  0  0  0  0  0
   93.1809   52.6785  270.0639 C   0  0  0  0  0  0  0  0  0  0  0  0
   94.1584   53.5252  269.5157 C   0  0  0  0  0  0  0  0  0  0  0  0
   94.4333   54.7672  270.0482 O   0  0  0  0  0  0  0  0  0  0  0  0
   94.0133   54.9117  271.4001 C   0  0  0  0  0  0  0  0  0  0  0  0
   92.5929   54.3553  271.5885 C   0  0  0  0  0  0  0  0  0  0  0  0
   92.5255   52.9762  271.2421 O   0  0  0  0  0  0  0  0  0  0  0  0
   97.4701   48.1438  268.0547 H   0  0  0  0  0  0  0  0  0  0  0  0
   96.7793   45.9370  267.0484 H   0  0  0  0  0  0  0  0  0  0  0  0
   92.2874   46.3752  266.0453 H   0  0  0  0  0  0  0  0  0  0  0  0
   91.2144   50.2757  267.4253 H   0  0  0  0  0  0  0  0  0  0  0  0
   89.5843   48.5996  266.8791 H   0  0  0  0  0  0  0  0  0  0  0  0
   95.1184   51.6380  266.8951 H   0  0  0  0  0  0  0  0  0  0  0  0
   95.6084   53.8097  267.9625 H   0  0  0  0  0  0  0  0  0  0  0  0
   92.1529   50.8186  269.9099 H   0  0  0  0  0  0  0  0  0  0  0  0
   91.4082   47.5286  263.9600 H   0  0  0  0  0  0  0  0  0  0  0  0
   88.2722   45.3793  262.3200 H   0  0  0  0  0  0  0  0  0  0  0  0
   86.9047   45.6369  264.3728 H   0  0  0  0  0  0  0  0  0  0  0  0
   88.3558   44.6887  267.5313 H   0  0  0  0  0  0  0  0  0  0  0  0
   87.8534   45.6061  268.9764 H   0  0  0  0  0  0  0  0  0  0  0  0
   89.3985   45.9973  268.1617 H   0  0  0  0  0  0  0  0  0  0  0  0
   94.6915   54.3763  272.0652 H   0  0  0  0  0  0  0  0  0  0  0  0
   94.0495   55.9651  271.6740 H   0  0  0  0  0  0  0  0  0  0  0  0
   91.9903   54.9200  270.8846 H   0  0  0  0  0  0  0  0  0  0  0  0
   92.1930   54.5411  272.5852 H   0  0  0  0  0  0  0  0  0  0  0  0
  1  4  1  0  0  0  0
  1  6  2  0  0  0  0
  2  3  1  0  0  0  0
  2  5  2  0  0  0  0
  3  4  2  0  0  0  0
  3 32  1  0  0  0  0
  4 33  1  0  0  0  0
  5  6  1  0  0  0  0
  5 10  1  0  0  0  0
  6  7  1  0  0  0  0
  7  8  2  0  0  0  0
  7 34  1  0  0  0  0
  8  9  1  0  0  0  0
  8 12  1  0  0  0  0
  9 10  2  0  0  0  0
  9 35  1  0  0  0  0
 10 11  1  0  0  0  0
 11 13  2  0  0  0  0
 11 15  1  0  0  0  0
 12 16  1  0  0  0  0
 12 36  1  0  0  0  0
 13 14  1  0  0  0  0
 13 37  1  0  0  0  0
 14 27  2  0  0  0  0
 14 38  1  0  0  0  0
 15 26  2  0  0  0  0
 15 39  1  0  0  0  0
 16 17  2  0  0  0  0
 16 21  1  0  0  0  0
 17 18  1  0  0  0  0
 17 40  1  0  0  0  0
 18 19  2  0  0  0  0
 19 20  1  0  0  0  0
 19 41  1  0  0  0  0
 20 21  2  0  0  0  0
 20 42  1  0  0  0  0
 21 22  1  0  0  0  0
 22 23  2  0  0  0  0
 22 24  2  0  0  0  0
 22 25  1  0  0  0  0
 25 43  1  0  0  0  0
 25 44  1  0  0  0  0
 25 45  1  0  0  0  0
 26 27  1  0  0  0  0
 26 31  1  0  0  0  0
 27 28  1  0  0  0  0
 28 29  1  0  0  0  0
 29 30  1  0  0  0  0
 29 46  1  0  0  0  0
 29 47  1  0  0  0  0
 30 31  1  0  0  0  0
 30 48  1  0  0  0  0
 30 49  1  0  0  0  0
M  END
>  <ID>
59

>  <IC50[uM]>
1.126

$$$$
