@<TRIPOS>MOLECULE
60
 54 58 0 0 0
SMALL
GASTEIGER
****
Structure written by MMmdl.
@<TRIPOS>ATOM
      1 C          92.6660   47.2613  266.3406 C.ar    1  LIG1       -0.0130
      2 C          91.6770   48.2220  266.5146 C.ar    1  LIG1        0.0341
      3 C          91.9879   49.4167  267.1425 C.ar    1  LIG1       -0.0307
      4 C          93.2709   49.6946  267.6279 C.ar    1  LIG1        0.0113
      5 C          93.9719   47.4800  266.8354 C.ar    1  LIG1        0.0915
      6 C          94.2913   48.7152  267.4805 C.ar    1  LIG1        0.0969
      7 N          95.5450   48.9221  267.9883 N.ar    1  LIG1       -0.2513
      8 C          96.4599   47.9343  267.8372 C.ar    1  LIG1        0.0464
      9 C          96.1350   46.7275  267.2279 C.ar    1  LIG1        0.0464
     10 N          94.9013   46.4918  266.7230 N.ar    1  LIG1       -0.2519
     11 N          90.3487   47.9881  266.1437 N.pl3   1  LIG1       -0.3118
     12 C          89.8102   47.2444  265.0862 C.ar    1  LIG1        0.0748
     13 C          90.5239   47.0994  263.8922 C.ar    1  LIG1        0.0505
     14 N          90.0430   46.4477  262.8068 N.ar    1  LIG1       -0.2613
     15 C          88.8025   45.9112  262.8993 C.ar    1  LIG1        0.0295
     16 C          88.0213   45.9914  264.0502 C.ar    1  LIG1       -0.0169
     17 C          88.5247   46.6790  265.1618 C.ar    1  LIG1        0.1118
     18 S          87.5572   46.7485  266.6776 S.O2    1  LIG1       -0.0040
     19 O          87.9494   45.5860  267.4786 O.2     1  LIG1       -0.1696
     20 O          87.7078   48.0995  267.2278 O.2     1  LIG1       -0.1696
     21 C          85.7583   46.5374  266.1602 C.3     1  LIG1        0.0597
     22 C          93.4545   50.9305  268.4147 C.ar    1  LIG1       -0.0152
     23 C          94.4202   51.9117  268.1364 C.ar    1  LIG1       -0.0505
     24 C          94.4695   53.0834  268.9040 C.ar    1  LIG1       -0.0191
     25 C          92.5838   51.1138  269.4835 C.ar    1  LIG1       -0.0467
     26 C          92.6365   52.2501  270.2532 C.ar    1  LIG1        0.0037
     27 C          93.5640   53.2265  269.9558 C.ar    1  LIG1        0.1244
     28 O          93.4148   54.3422  270.7273 O.3     1  LIG1       -0.4908
     29 C          92.4599   54.0057  271.7365 C.3     1  LIG1        0.0988
     30 C          91.7186   52.6858  271.3365 C.3     1  LIG1        0.0276
     31 C          91.6600   51.7353  272.5275 C.3     1  LIG1       -0.0525
     32 C          90.2882   52.7274  270.7487 C.3     1  LIG1       -0.0525
     33 H          92.4190   46.3273  265.8706 H       1  LIG1        0.0658
     34 H          91.1990   50.1424  267.2856 H       1  LIG1        0.0643
     35 H          97.4509   48.1344  268.2160 H       1  LIG1        0.0845
     36 H          96.8601   45.9347  267.1210 H       1  LIG1        0.0845
     37 H          89.6448   48.3730  266.7646 H       1  LIG1        0.1522
     38 H          91.5092   47.5215  263.7899 H       1  LIG1        0.0849
     39 H          88.4352   45.3922  262.0288 H       1  LIG1        0.0830
     40 H          87.0510   45.5181  264.0657 H       1  LIG1        0.0652
     41 H          85.1315   46.6853  267.0371 H       1  LIG1        0.0468
     42 H          85.6122   45.5261  265.7792 H       1  LIG1        0.0468
     43 H          85.5191   47.2723  265.3933 H       1  LIG1        0.0468
     44 H          95.1056   51.7814  267.3114 H       1  LIG1        0.0625
     45 H          95.1829   53.8593  268.6701 H       1  LIG1        0.0654
     46 H          91.8355   50.3646  269.6999 H       1  LIG1        0.0628
     47 H          91.8441   54.8559  272.0034 H       1  LIG1        0.0705
     48 H          93.0585   53.8331  272.6315 H       1  LIG1        0.0705
     49 H          92.6717   51.5280  272.8282 H       1  LIG1        0.0239
     50 H          91.1837   50.7813  272.3000 H       1  LIG1        0.0239
     51 H          91.1571   52.1856  273.3830 H       1  LIG1        0.0239
     52 H          90.2017   53.5269  270.0147 H       1  LIG1        0.0239
     53 H          89.5374   52.9139  271.5165 H       1  LIG1        0.0239
     54 H          89.9978   51.8184  270.2314 H       1  LIG1        0.0239
@<TRIPOS>BOND
     1     1     2   ar
     2     1     5   ar
     3     1    33    1
     4     2     3   ar
     5     2    11    1
     6     3     4   ar
     7     3    34    1
     8     4     6   ar
     9     4    22    1
    10     5     6   ar
    11     5    10   ar
    12     6     7   ar
    13     7     8   ar
    14     8     9   ar
    15     8    35    1
    16     9    10   ar
    17     9    36    1
    18    11    12    1
    19    11    37    1
    20    12    13   ar
    21    12    17   ar
    22    13    14   ar
    23    13    38    1
    24    14    15   ar
    25    15    16   ar
    26    15    39    1
    27    16    17   ar
    28    16    40    1
    29    17    18    1
    30    18    19    2
    31    18    20    2
    32    18    21    1
    33    21    41    1
    34    21    42    1
    35    21    43    1
    36    22    23   ar
    37    22    25   ar
    38    23    24   ar
    39    23    44    1
    40    24    27   ar
    41    24    45    1
    42    25    26   ar
    43    25    46    1
    44    26    27   ar
    45    26    30    1
    46    27    28    1
    47    28    29    1
    48    29    30    1
    49    29    47    1
    50    29    48    1
    51    30    31    1
    52    30    32    1
    53    31    49    1
    54    31    50    1
    55    31    51    1
    56    32    52    1
    57    32    53    1
    58    32    54    1
