60
 OpenBabel02152110423D
Structure written by MMmdl.
 54 58  0  0  1  0  0  0  0  0999 V2000
   92.6660   47.2613  266.3406 C   0  0  0  0  0  0  0  0  0  0  0  0
   91.6770   48.2220  266.5146 C   0  0  0  0  0  0  0  0  0  0  0  0
   91.9879   49.4167  267.1425 C   0  0  0  0  0  0  0  0  0  0  0  0
   93.2709   49.6946  267.6279 C   0  0  0  0  0  0  0  0  0  0  0  0
   93.9719   47.4800  266.8354 C   0  0  0  0  0  0  0  0  0  0  0  0
   94.2913   48.7152  267.4805 C   0  0  0  0  0  0  0  0  0  0  0  0
   95.5450   48.9221  267.9883 N   0  0  0  0  0  0  0  0  0  0  0  0
   96.4599   47.9343  267.8372 C   0  0  0  0  0  0  0  0  0  0  0  0
   96.1350   46.7275  267.2279 C   0  0  0  0  0  0  0  0  0  0  0  0
   94.9013   46.4918  266.7230 N   0  0  0  0  0  0  0  0  0  0  0  0
   90.3487   47.9881  266.1437 N   0  0  0  0  0  0  0  0  0  0  0  0
   89.8102   47.2444  265.0862 C   0  0  0  0  0  0  0  0  0  0  0  0
   90.5239   47.0994  263.8922 C   0  0  0  0  0  0  0  0  0  0  0  0
   90.0430   46.4477  262.8068 N   0  0  0  0  0  0  0  0  0  0  0  0
   88.8025   45.9112  262.8993 C   0  0  0  0  0  0  0  0  0  0  0  0
   88.0213   45.9914  264.0502 C   0  0  0  0  0  0  0  0  0  0  0  0
   88.5247   46.6790  265.1618 C   0  0  0  0  0  0  0  0  0  0  0  0
   87.5572   46.7485  266.6776 S   0  0  0  0  0  0  0  0  0  0  0  0
   87.9494   45.5860  267.4786 O   0  0  0  0  0  0  0  0  0  0  0  0
   87.7078   48.0995  267.2278 O   0  0  0  0  0  0  0  0  0  0  0  0
   85.7583   46.5374  266.1602 C   0  0  0  0  0  0  0  0  0  0  0  0
   93.4545   50.9305  268.4147 C   0  0  0  0  0  0  0  0  0  0  0  0
   94.4202   51.9117  268.1364 C   0  0  0  0  0  0  0  0  0  0  0  0
   94.4695   53.0834  268.9040 C   0  0  0  0  0  0  0  0  0  0  0  0
   92.5838   51.1138  269.4835 C   0  0  0  0  0  0  0  0  0  0  0  0
   92.6365   52.2501  270.2532 C   0  0  0  0  0  0  0  0  0  0  0  0
   93.5640   53.2265  269.9558 C   0  0  0  0  0  0  0  0  0  0  0  0
   93.4148   54.3422  270.7273 O   0  0  0  0  0  0  0  0  0  0  0  0
   92.4599   54.0057  271.7365 C   0  0  0  0  0  0  0  0  0  0  0  0
   91.7186   52.6858  271.3365 C   0  0  0  0  0  0  0  0  0  0  0  0
   91.6600   51.7353  272.5275 C   0  0  0  0  0  0  0  0  0  0  0  0
   90.2882   52.7274  270.7487 C   0  0  0  0  0  0  0  0  0  0  0  0
   92.4190   46.3273  265.8706 H   0  0  0  0  0  0  0  0  0  0  0  0
   91.1990   50.1424  267.2856 H   0  0  0  0  0  0  0  0  0  0  0  0
   97.4509   48.1344  268.2160 H   0  0  0  0  0  0  0  0  0  0  0  0
   96.8601   45.9347  267.1210 H   0  0  0  0  0  0  0  0  0  0  0  0
   89.6448   48.3730  266.7646 H   0  0  0  0  0  0  0  0  0  0  0  0
   91.5092   47.5215  263.7899 H   0  0  0  0  0  0  0  0  0  0  0  0
   88.4352   45.3922  262.0288 H   0  0  0  0  0  0  0  0  0  0  0  0
   87.0510   45.5181  264.0657 H   0  0  0  0  0  0  0  0  0  0  0  0
   85.1315   46.6853  267.0371 H   0  0  0  0  0  0  0  0  0  0  0  0
   85.6122   45.5261  265.7792 H   0  0  0  0  0  0  0  0  0  0  0  0
   85.5191   47.2723  265.3933 H   0  0  0  0  0  0  0  0  0  0  0  0
   95.1056   51.7814  267.3114 H   0  0  0  0  0  0  0  0  0  0  0  0
   95.1829   53.8593  268.6701 H   0  0  0  0  0  0  0  0  0  0  0  0
   91.8355   50.3646  269.6999 H   0  0  0  0  0  0  0  0  0  0  0  0
   91.8441   54.8559  272.0034 H   0  0  0  0  0  0  0  0  0  0  0  0
   93.0585   53.8331  272.6315 H   0  0  0  0  0  0  0  0  0  0  0  0
   92.6717   51.5280  272.8282 H   0  0  0  0  0  0  0  0  0  0  0  0
   91.1837   50.7813  272.3000 H   0  0  0  0  0  0  0  0  0  0  0  0
   91.1571   52.1856  273.3830 H   0  0  0  0  0  0  0  0  0  0  0  0
   90.2017   53.5269  270.0147 H   0  0  0  0  0  0  0  0  0  0  0  0
   89.5374   52.9139  271.5165 H   0  0  0  0  0  0  0  0  0  0  0  0
   89.9978   51.8184  270.2314 H   0  0  0  0  0  0  0  0  0  0  0  0
  1  2  2  0  0  0  0
  1  5  1  0  0  0  0
  1 33  1  0  0  0  0
  2  3  1  0  0  0  0
  2 11  1  0  0  0  0
  3  4  2  0  0  0  0
  3 34  1  0  0  0  0
  4  6  1  0  0  0  0
  4 22  1  0  0  0  0
  5  6  1  0  0  0  0
  5 10  2  0  0  0  0
  6  7  2  0  0  0  0
  7  8  1  0  0  0  0
  8  9  2  0  0  0  0
  8 35  1  0  0  0  0
  9 10  1  0  0  0  0
  9 36  1  0  0  0  0
 11 12  1  0  0  0  0
 11 37  1  0  0  0  0
 12 13  2  0  0  0  0
 12 17  1  0  0  0  0
 13 14  1  0  0  0  0
 13 38  1  0  0  0  0
 14 15  2  0  0  0  0
 15 16  1  0  0  0  0
 15 39  1  0  0  0  0
 16 17  2  0  0  0  0
 16 40  1  0  0  0  0
 17 18  1  0  0  0  0
 18 19  2  0  0  0  0
 18 20  2  0  0  0  0
 18 21  1  0  0  0  0
 21 41  1  0  0  0  0
 21 42  1  0  0  0  0
 21 43  1  0  0  0  0
 22 23  2  0  0  0  0
 22 25  1  0  0  0  0
 23 24  1  0  0  0  0
 23 44  1  0  0  0  0
 24 27  2  0  0  0  0
 24 45  1  0  0  0  0
 25 26  2  0  0  0  0
 25 46  1  0  0  0  0
 26 27  1  0  0  0  0
 26 30  1  0  0  0  0
 27 28  1  0  0  0  0
 28 29  1  0  0  0  0
 29 30  1  0  0  0  0
 29 47  1  0  0  0  0
 29 48  1  0  0  0  0
 30 31  1  0  0  0  0
 30 32  1  0  0  0  0
 31 49  1  0  0  0  0
 31 50  1  0  0  0  0
 31 51  1  0  0  0  0
 32 52  1  0  0  0  0
 32 53  1  0  0  0  0
 32 54  1  0  0  0  0
M  END
>  <ID>
60

>  <IC50[uM]>
1.073

$$$$
