@<TRIPOS>MOLECULE
62
 44 48 0 0 0
SMALL
GASTEIGER
****
Structure written by MMmdl.
@<TRIPOS>ATOM
      1 C          92.5616   47.3431  266.4810 C.ar    1  LIG1       -0.0130
      2 C          91.6083   48.3378  266.6788 C.ar    1  LIG1        0.0341
      3 C          91.9675   49.5360  267.2894 C.ar    1  LIG1       -0.0307
      4 C          93.2833   49.8036  267.6841 C.ar    1  LIG1        0.0114
      5 C          93.8906   47.5426  266.9050 C.ar    1  LIG1        0.0915
      6 C          94.2692   48.7834  267.5054 C.ar    1  LIG1        0.0969
      7 N          95.5582   48.9676  267.9253 N.ar    1  LIG1       -0.2513
      8 C          96.4459   47.9593  267.7336 C.ar    1  LIG1        0.0464
      9 C          96.0546   46.7511  267.1656 C.ar    1  LIG1        0.0464
     10 N          94.7960   46.5357  266.7462 N.ar    1  LIG1       -0.2519
     11 C          93.6000   51.1078  268.3203 C.ar    1  LIG1       -0.0135
     12 N          90.2728   48.1334  266.3179 N.pl3   1  LIG1       -0.3118
     13 C          94.5796   51.9508  267.7841 C.ar    1  LIG1       -0.0517
     14 C          94.8793   53.1855  268.3642 C.ar    1  LIG1       -0.0303
     15 C          92.9122   51.4860  269.4818 C.ar    1  LIG1       -0.0230
     16 C          93.2219   52.7049  270.0921 C.ar    1  LIG1        0.1348
     17 C          94.1726   53.5723  269.5148 C.ar    1  LIG1        0.1342
     18 N          94.2452   54.7250  270.2335 N.ar    1  LIG1       -0.0489
     19 O          93.3558   54.4935  271.2868 O.2     1  LIG1       -0.2416
     20 N          92.7185   53.2485  271.2321 N.ar    1  LIG1       -0.0489
     21 C          89.7162   47.3504  265.2906 C.ar    1  LIG1        0.0748
     22 C          88.4248   46.8034  265.3985 C.ar    1  LIG1        0.1118
     23 C          87.8890   46.0969  264.3132 C.ar    1  LIG1       -0.0169
     24 C          88.6624   45.9387  263.1651 C.ar    1  LIG1        0.0295
     25 N          89.9162   46.4364  263.0442 N.ar    1  LIG1       -0.2613
     26 C          90.4181   47.1285  264.0963 C.ar    1  LIG1        0.0505
     27 S          87.4804   46.8895  266.9250 S.O2    1  LIG1       -0.0040
     28 C          88.3878   45.6691  268.0379 C.3     1  LIG1        0.0597
     29 O          86.1403   46.3593  266.6660 O.2     1  LIG1       -0.1696
     30 O          87.6424   48.2387  267.4798 O.2     1  LIG1       -0.1696
     31 H          92.2854   46.3950  266.0421 H       1  LIG1        0.0658
     32 H          91.2053   50.2860  267.4565 H       1  LIG1        0.0643
     33 H          97.4627   48.1378  268.0449 H       1  LIG1        0.0845
     34 H          96.7700   45.9486  267.0128 H       1  LIG1        0.0845
     35 H          89.5943   48.6264  266.8885 H       1  LIG1        0.1522
     36 H          95.1084   51.6478  266.8879 H       1  LIG1        0.0624
     37 H          95.6245   53.8350  267.9323 H       1  LIG1        0.0641
     38 H          92.1553   50.8472  269.9070 H       1  LIG1        0.0647
     39 H          86.8985   45.6634  264.3535 H       1  LIG1        0.0652
     40 H          88.2735   45.3947  262.3179 H       1  LIG1        0.0830
     41 H          91.4051   47.5333  263.9482 H       1  LIG1        0.0849
     42 H          87.8829   45.6238  268.9999 H       1  LIG1        0.0468
     43 H          89.4189   45.9985  268.1656 H       1  LIG1        0.0468
     44 H          88.3528   44.6799  267.5881 H       1  LIG1        0.0468
@<TRIPOS>BOND
     1     1     2   ar
     2     1     5   ar
     3     1    31    1
     4     2     3   ar
     5     2    12    1
     6     3     4   ar
     7     3    32    1
     8     4     6   ar
     9     4    11    1
    10     5     6   ar
    11     5    10   ar
    12     6     7   ar
    13     7     8   ar
    14     8     9   ar
    15     8    33    1
    16     9    10   ar
    17     9    34    1
    18    11    13   ar
    19    11    15   ar
    20    12    21    1
    21    12    35    1
    22    13    14   ar
    23    13    36    1
    24    14    17   ar
    25    14    37    1
    26    15    16   ar
    27    15    38    1
    28    16    17   ar
    29    16    20   ar
    30    17    18   ar
    31    18    19   ar
    32    19    20   ar
    33    21    22   ar
    34    21    26   ar
    35    22    23   ar
    36    22    27    1
    37    23    24   ar
    38    23    39    1
    39    24    25   ar
    40    24    40    1
    41    25    26   ar
    42    26    41    1
    43    27    28    1
    44    27    29    2
    45    27    30    2
    46    28    42    1
    47    28    43    1
    48    28    44    1
