62
 OpenBabel02152110423D
Structure written by MMmdl.
 44 48  0  0  1  0  0  0  0  0999 V2000
   92.5616   47.3431  266.4810 C   0  0  0  0  0  0  0  0  0  0  0  0
   91.6083   48.3378  266.6788 C   0  0  0  0  0  0  0  0  0  0  0  0
   91.9675   49.5360  267.2894 C   0  0  0  0  0  0  0  0  0  0  0  0
   93.2833   49.8036  267.6841 C   0  0  0  0  0  0  0  0  0  0  0  0
   93.8906   47.5426  266.9050 C   0  0  0  0  0  0  0  0  0  0  0  0
   94.2692   48.7834  267.5054 C   0  0  0  0  0  0  0  0  0  0  0  0
   95.5582   48.9676  267.9253 N   0  0  0  0  0  0  0  0  0  0  0  0
   96.4459   47.9593  267.7336 C   0  0  0  0  0  0  0  0  0  0  0  0
   96.0546   46.7511  267.1656 C   0  0  0  0  0  0  0  0  0  0  0  0
   94.7960   46.5357  266.7462 N   0  0  0  0  0  0  0  0  0  0  0  0
   93.6000   51.1078  268.3203 C   0  0  0  0  0  0  0  0  0  0  0  0
   90.2728   48.1334  266.3179 N   0  0  0  0  0  0  0  0  0  0  0  0
   94.5796   51.9508  267.7841 C   0  0  0  0  0  0  0  0  0  0  0  0
   94.8793   53.1855  268.3642 C   0  0  0  0  0  0  0  0  0  0  0  0
   92.9122   51.4860  269.4818 C   0  0  0  0  0  0  0  0  0  0  0  0
   93.2219   52.7049  270.0921 C   0  0  0  0  0  0  0  0  0  0  0  0
   94.1726   53.5723  269.5148 C   0  0  0  0  0  0  0  0  0  0  0  0
   94.2452   54.7250  270.2335 N   0  0  0  0  0  0  0  0  0  0  0  0
   93.3558   54.4935  271.2868 O   0  0  0  0  0  0  0  0  0  0  0  0
   92.7185   53.2485  271.2321 N   0  0  0  0  0  0  0  0  0  0  0  0
   89.7162   47.3504  265.2906 C   0  0  0  0  0  0  0  0  0  0  0  0
   88.4248   46.8034  265.3985 C   0  0  0  0  0  0  0  0  0  0  0  0
   87.8890   46.0969  264.3132 C   0  0  0  0  0  0  0  0  0  0  0  0
   88.6624   45.9387  263.1651 C   0  0  0  0  0  0  0  0  0  0  0  0
   89.9162   46.4364  263.0442 N   0  0  0  0  0  0  0  0  0  0  0  0
   90.4181   47.1285  264.0963 C   0  0  0  0  0  0  0  0  0  0  0  0
   87.4804   46.8895  266.9250 S   0  0  0  0  0  0  0  0  0  0  0  0
   88.3878   45.6691  268.0379 C   0  0  0  0  0  0  0  0  0  0  0  0
   86.1403   46.3593  266.6660 O   0  0  0  0  0  0  0  0  0  0  0  0
   87.6424   48.2387  267.4798 O   0  0  0  0  0  0  0  0  0  0  0  0
   92.2854   46.3950  266.0421 H   0  0  0  0  0  0  0  0  0  0  0  0
   91.2053   50.2860  267.4565 H   0  0  0  0  0  0  0  0  0  0  0  0
   97.4627   48.1378  268.0449 H   0  0  0  0  0  0  0  0  0  0  0  0
   96.7700   45.9486  267.0128 H   0  0  0  0  0  0  0  0  0  0  0  0
   89.5943   48.6264  266.8885 H   0  0  0  0  0  0  0  0  0  0  0  0
   95.1084   51.6478  266.8879 H   0  0  0  0  0  0  0  0  0  0  0  0
   95.6245   53.8350  267.9323 H   0  0  0  0  0  0  0  0  0  0  0  0
   92.1553   50.8472  269.9070 H   0  0  0  0  0  0  0  0  0  0  0  0
   86.8985   45.6634  264.3535 H   0  0  0  0  0  0  0  0  0  0  0  0
   88.2735   45.3947  262.3179 H   0  0  0  0  0  0  0  0  0  0  0  0
   91.4051   47.5333  263.9482 H   0  0  0  0  0  0  0  0  0  0  0  0
   87.8829   45.6238  268.9999 H   0  0  0  0  0  0  0  0  0  0  0  0
   89.4189   45.9985  268.1656 H   0  0  0  0  0  0  0  0  0  0  0  0
   88.3528   44.6799  267.5881 H   0  0  0  0  0  0  0  0  0  0  0  0
  1  2  2  0  0  0  0
  1  5  1  0  0  0  0
  1 31  1  0  0  0  0
  2  3  1  0  0  0  0
  2 12  1  0  0  0  0
  3  4  2  0  0  0  0
  3 32  1  0  0  0  0
  4  6  1  0  0  0  0
  4 11  1  0  0  0  0
  5  6  1  0  0  0  0
  5 10  2  0  0  0  0
  6  7  2  0  0  0  0
  7  8  1  0  0  0  0
  8  9  2  0  0  0  0
  8 33  1  0  0  0  0
  9 10  1  0  0  0  0
  9 34  1  0  0  0  0
 11 13  1  0  0  0  0
 11 15  2  0  0  0  0
 12 21  1  0  0  0  0
 12 35  1  0  0  0  0
 13 14  2  0  0  0  0
 13 36  1  0  0  0  0
 14 17  1  0  0  0  0
 14 37  1  0  0  0  0
 15 16  1  0  0  0  0
 15 38  1  0  0  0  0
 16 17  1  0  0  0  0
 16 20  2  0  0  0  0
 17 18  2  0  0  0  0
 18 19  1  0  0  0  0
 19 20  1  0  0  0  0
 21 22  2  0  0  0  0
 21 26  1  0  0  0  0
 22 23  1  0  0  0  0
 22 27  1  0  0  0  0
 23 24  2  0  0  0  0
 23 39  1  0  0  0  0
 24 25  1  0  0  0  0
 24 40  1  0  0  0  0
 25 26  2  0  0  0  0
 26 41  1  0  0  0  0
 27 28  1  0  0  0  0
 27 29  2  0  0  0  0
 27 30  2  0  0  0  0
 28 42  1  0  0  0  0
 28 43  1  0  0  0  0
 28 44  1  0  0  0  0
M  END
>  <ID>
62

>  <IC50[uM]>
2.301

$$$$
