@<TRIPOS>MOLECULE
63
 44 48 0 0 0
SMALL
GASTEIGER
****
Structure written by MMmdl.
@<TRIPOS>ATOM
      1 C          92.5635   47.3408  266.4808 C.ar    1  LIG1       -0.0130
      2 C          91.6075   48.3335  266.6743 C.ar    1  LIG1        0.0341
      3 C          91.9695   49.5319  267.2848 C.ar    1  LIG1       -0.0307
      4 C          93.2834   49.7950  267.6878 C.ar    1  LIG1        0.0114
      5 C          93.8922   47.5381  266.9103 C.ar    1  LIG1        0.0915
      6 C          94.2715   48.7791  267.5122 C.ar    1  LIG1        0.0969
      7 N          95.5600   48.9654  267.9352 N.ar    1  LIG1       -0.2513
      8 C          96.4479   47.9572  267.7463 C.ar    1  LIG1        0.0464
      9 C          96.0599   46.7469  267.1846 C.ar    1  LIG1        0.0464
     10 N          94.7947   46.5302  266.7602 N.ar    1  LIG1       -0.2519
     11 C          93.5954   51.0976  268.3318 C.ar    1  LIG1       -0.0136
     12 N          90.2720   48.1244  266.3145 N.pl3   1  LIG1       -0.3118
     13 C          94.5752   51.9450  267.7933 C.ar    1  LIG1       -0.0518
     14 C          94.8768   53.1820  268.3621 C.ar    1  LIG1       -0.0329
     15 C          92.9001   51.4735  269.4880 C.ar    1  LIG1       -0.0257
     16 C          93.1999   52.6985  270.0791 C.ar    1  LIG1        0.1004
     17 C          94.1534   53.5481  269.5013 C.ar    1  LIG1        0.0999
     18 N          94.3301   54.7275  270.1391 N.ar    1  LIG1       -0.1908
     19 S          93.3222   54.6345  271.4618 S.2     1  LIG1        0.1165
     20 N          92.6192   53.1453  271.2154 N.ar    1  LIG1       -0.1908
     21 C          89.7145   47.3441  265.2879 C.ar    1  LIG1        0.0748
     22 C          88.4225   46.8014  265.3965 C.ar    1  LIG1        0.1118
     23 C          87.8867   46.0933  264.3141 C.ar    1  LIG1       -0.0169
     24 C          88.6573   45.9409  263.1630 C.ar    1  LIG1        0.0295
     25 N          89.9107   46.4413  263.0402 N.ar    1  LIG1       -0.2613
     26 C          90.4172   47.1261  264.0958 C.ar    1  LIG1        0.0505
     27 S          87.4804   46.8886  266.9234 S.O2    1  LIG1       -0.0040
     28 C          88.3814   45.6524  268.0226 C.3     1  LIG1        0.0597
     29 O          86.1349   46.3742  266.6655 O.2     1  LIG1       -0.1696
     30 O          87.6601   48.2354  267.4816 O.2     1  LIG1       -0.1696
     31 H          92.2828   46.3935  266.0450 H       1  LIG1        0.0658
     32 H          91.2085   50.2841  267.4433 H       1  LIG1        0.0643
     33 H          97.4692   48.1447  268.0448 H       1  LIG1        0.0845
     34 H          96.7697   45.9473  267.0232 H       1  LIG1        0.0845
     35 H          89.5800   48.6088  266.8767 H       1  LIG1        0.1522
     36 H          95.1051   51.6472  266.8997 H       1  LIG1        0.0624
     37 H          95.6283   53.8309  267.9272 H       1  LIG1        0.0640
     38 H          92.1531   50.8275  269.9218 H       1  LIG1        0.0646
     39 H          86.9004   45.6524  264.3687 H       1  LIG1        0.0652
     40 H          88.2720   45.3899  262.3191 H       1  LIG1        0.0830
     41 H          91.4083   47.5277  263.9633 H       1  LIG1        0.0849
     42 H          87.8668   45.5727  268.9784 H       1  LIG1        0.0468
     43 H          89.4077   45.9918  268.1612 H       1  LIG1        0.0468
     44 H          88.3602   44.6759  267.5447 H       1  LIG1        0.0468
@<TRIPOS>BOND
     1     1     2   ar
     2     1     5   ar
     3     1    31    1
     4     2     3   ar
     5     2    12    1
     6     3     4   ar
     7     3    32    1
     8     4     6   ar
     9     4    11    1
    10     5     6   ar
    11     5    10   ar
    12     6     7   ar
    13     7     8   ar
    14     8     9   ar
    15     8    33    1
    16     9    10   ar
    17     9    34    1
    18    11    13   ar
    19    11    15   ar
    20    12    21    1
    21    12    35    1
    22    13    14   ar
    23    13    36    1
    24    14    17   ar
    25    14    37    1
    26    15    16   ar
    27    15    38    1
    28    16    17   ar
    29    16    20   ar
    30    17    18   ar
    31    18    19   ar
    32    19    20   ar
    33    21    22   ar
    34    21    26   ar
    35    22    23   ar
    36    22    27    1
    37    23    24   ar
    38    23    39    1
    39    24    25   ar
    40    24    40    1
    41    25    26   ar
    42    26    41    1
    43    27    28    1
    44    27    29    2
    45    27    30    2
    46    28    42    1
    47    28    43    1
    48    28    44    1
