@<TRIPOS>MOLECULE
64
 45 49 0 0 0
SMALL
GASTEIGER
****
Structure written by MMmdl.
@<TRIPOS>ATOM
      1 C          92.5649   47.3357  266.4780 C.ar    1  LIG1       -0.0130
      2 C          91.6096   48.3267  266.6685 C.ar    1  LIG1        0.0341
      3 C          91.9706   49.5255  267.2755 C.ar    1  LIG1       -0.0307
      4 C          93.2850   49.7849  267.6888 C.ar    1  LIG1        0.0113
      5 C          93.8962   47.5315  266.9149 C.ar    1  LIG1        0.0915
      6 C          94.2730   48.7725  267.5157 C.ar    1  LIG1        0.0969
      7 N          95.5623   48.9611  267.9440 N.ar    1  LIG1       -0.2513
      8 C          96.4530   47.9549  267.7607 C.ar    1  LIG1        0.0464
      9 C          96.0604   46.7398  267.2043 C.ar    1  LIG1        0.0464
     10 N          94.8009   46.5220  266.7799 N.ar    1  LIG1       -0.2519
     11 C          93.5830   51.0799  268.3394 C.ar    1  LIG1       -0.0146
     12 C          94.5627   51.9319  267.8062 C.ar    1  LIG1       -0.0519
     13 C          94.8597   53.1715  268.3735 C.ar    1  LIG1       -0.0346
     14 C          92.8765   51.4421  269.4881 C.ar    1  LIG1       -0.0381
     15 C          93.1675   52.6783  270.0741 C.ar    1  LIG1        0.0395
     16 C          94.1347   53.5526  269.5062 C.ar    1  LIG1        0.0782
     17 N          94.3115   54.7222  270.1528 N.ar    1  LIG1       -0.2474
     18 C          93.5858   54.7561  271.2381 C.ar    1  LIG1        0.0659
     19 S          92.5123   53.4088  271.5255 S.2     1  LIG1       -0.0754
     20 N          90.2698   48.1142  266.3113 N.pl3   1  LIG1       -0.3118
     21 C          89.7130   47.3380  265.2849 C.ar    1  LIG1        0.0748
     22 C          88.4197   46.7984  265.3938 C.ar    1  LIG1        0.1118
     23 C          87.8833   46.0898  264.3143 C.ar    1  LIG1       -0.0169
     24 C          88.6520   45.9437  263.1599 C.ar    1  LIG1        0.0295
     25 N          89.9057   46.4470  263.0359 N.ar    1  LIG1       -0.2613
     26 C          90.4150   47.1276  264.0943 C.ar    1  LIG1        0.0505
     27 S          87.4814   46.8888  266.9221 S.O2    1  LIG1       -0.0040
     28 O          86.1277   46.3901  266.6642 O.2     1  LIG1       -0.1696
     29 O          87.6791   48.2295  267.4834 O.2     1  LIG1       -0.1696
     30 C          88.3741   45.6337  268.0075 C.3     1  LIG1        0.0597
     31 H          92.2772   46.3870  266.0471 H       1  LIG1        0.0658
     32 H          91.2167   50.2829  267.4282 H       1  LIG1        0.0643
     33 H          97.4752   48.1511  268.0450 H       1  LIG1        0.0845
     34 H          96.7724   45.9411  267.0337 H       1  LIG1        0.0845
     35 H          95.0979   51.6435  266.9149 H       1  LIG1        0.0624
     36 H          95.6126   53.8190  267.9423 H       1  LIG1        0.0639
     37 H          92.1404   50.7736  269.9238 H       1  LIG1        0.0635
     38 H          93.6220   55.5864  271.9137 H       1  LIG1        0.0907
     39 H          89.5638   48.5895  266.8627 H       1  LIG1        0.1522
     40 H          86.9016   45.6396  264.3864 H       1  LIG1        0.0652
     41 H          88.2700   45.3840  262.3199 H       1  LIG1        0.0830
     42 H          91.4114   47.5220  263.9807 H       1  LIG1        0.0849
     43 H          87.8479   45.5178  268.9549 H       1  LIG1        0.0468
     44 H          89.3964   45.9846  268.1559 H       1  LIG1        0.0468
     45 H          88.3682   44.6731  267.4983 H       1  LIG1        0.0468
@<TRIPOS>BOND
     1     1     2   ar
     2     1     5   ar
     3     1    31    1
     4     2     3   ar
     5     2    20    1
     6     3     4   ar
     7     3    32    1
     8     4     6   ar
     9     4    11    1
    10     5     6   ar
    11     5    10   ar
    12     6     7   ar
    13     7     8   ar
    14     8     9   ar
    15     8    33    1
    16     9    10   ar
    17     9    34    1
    18    11    12   ar
    19    11    14   ar
    20    12    13   ar
    21    12    35    1
    22    13    16   ar
    23    13    36    1
    24    14    15   ar
    25    14    37    1
    26    15    16   ar
    27    15    19   ar
    28    16    17   ar
    29    17    18   ar
    30    18    19   ar
    31    18    38    1
    32    20    21    1
    33    20    39    1
    34    21    22   ar
    35    21    26   ar
    36    22    23   ar
    37    22    27    1
    38    23    24   ar
    39    23    40    1
    40    24    25   ar
    41    24    41    1
    42    25    26   ar
    43    26    42    1
    44    27    28    2
    45    27    29    2
    46    27    30    1
    47    30    43    1
    48    30    44    1
    49    30    45    1
