64
 OpenBabel02152110423D
Structure written by MMmdl.
 45 49  0  0  1  0  0  0  0  0999 V2000
   92.5649   47.3357  266.4780 C   0  0  0  0  0  0  0  0  0  0  0  0
   91.6096   48.3267  266.6685 C   0  0  0  0  0  0  0  0  0  0  0  0
   91.9706   49.5255  267.2755 C   0  0  0  0  0  0  0  0  0  0  0  0
   93.2850   49.7849  267.6888 C   0  0  0  0  0  0  0  0  0  0  0  0
   93.8962   47.5315  266.9149 C   0  0  0  0  0  0  0  0  0  0  0  0
   94.2730   48.7725  267.5157 C   0  0  0  0  0  0  0  0  0  0  0  0
   95.5623   48.9611  267.9440 N   0  0  0  0  0  0  0  0  0  0  0  0
   96.4530   47.9549  267.7607 C   0  0  0  0  0  0  0  0  0  0  0  0
   96.0604   46.7398  267.2043 C   0  0  0  0  0  0  0  0  0  0  0  0
   94.8009   46.5220  266.7799 N   0  0  0  0  0  0  0  0  0  0  0  0
   93.5830   51.0799  268.3394 C   0  0  0  0  0  0  0  0  0  0  0  0
   94.5627   51.9319  267.8062 C   0  0  0  0  0  0  0  0  0  0  0  0
   94.8597   53.1715  268.3735 C   0  0  0  0  0  0  0  0  0  0  0  0
   92.8765   51.4421  269.4881 C   0  0  0  0  0  0  0  0  0  0  0  0
   93.1675   52.6783  270.0741 C   0  0  0  0  0  0  0  0  0  0  0  0
   94.1347   53.5526  269.5062 C   0  0  0  0  0  0  0  0  0  0  0  0
   94.3115   54.7222  270.1528 N   0  0  0  0  0  0  0  0  0  0  0  0
   93.5858   54.7561  271.2381 C   0  0  0  0  0  0  0  0  0  0  0  0
   92.5123   53.4088  271.5255 S   0  0  0  0  0  0  0  0  0  0  0  0
   90.2698   48.1142  266.3113 N   0  0  0  0  0  0  0  0  0  0  0  0
   89.7130   47.3380  265.2849 C   0  0  0  0  0  0  0  0  0  0  0  0
   88.4197   46.7984  265.3938 C   0  0  0  0  0  0  0  0  0  0  0  0
   87.8833   46.0898  264.3143 C   0  0  0  0  0  0  0  0  0  0  0  0
   88.6520   45.9437  263.1599 C   0  0  0  0  0  0  0  0  0  0  0  0
   89.9057   46.4470  263.0359 N   0  0  0  0  0  0  0  0  0  0  0  0
   90.4150   47.1276  264.0943 C   0  0  0  0  0  0  0  0  0  0  0  0
   87.4814   46.8888  266.9221 S   0  0  0  0  0  0  0  0  0  0  0  0
   86.1277   46.3901  266.6642 O   0  0  0  0  0  0  0  0  0  0  0  0
   87.6791   48.2295  267.4834 O   0  0  0  0  0  0  0  0  0  0  0  0
   88.3741   45.6337  268.0075 C   0  0  0  0  0  0  0  0  0  0  0  0
   92.2772   46.3870  266.0471 H   0  0  0  0  0  0  0  0  0  0  0  0
   91.2167   50.2829  267.4282 H   0  0  0  0  0  0  0  0  0  0  0  0
   97.4752   48.1511  268.0450 H   0  0  0  0  0  0  0  0  0  0  0  0
   96.7724   45.9411  267.0337 H   0  0  0  0  0  0  0  0  0  0  0  0
   95.0979   51.6435  266.9149 H   0  0  0  0  0  0  0  0  0  0  0  0
   95.6126   53.8190  267.9423 H   0  0  0  0  0  0  0  0  0  0  0  0
   92.1404   50.7736  269.9238 H   0  0  0  0  0  0  0  0  0  0  0  0
   93.6220   55.5864  271.9137 H   0  0  0  0  0  0  0  0  0  0  0  0
   89.5638   48.5895  266.8627 H   0  0  0  0  0  0  0  0  0  0  0  0
   86.9016   45.6396  264.3864 H   0  0  0  0  0  0  0  0  0  0  0  0
   88.2700   45.3840  262.3199 H   0  0  0  0  0  0  0  0  0  0  0  0
   91.4114   47.5220  263.9807 H   0  0  0  0  0  0  0  0  0  0  0  0
   87.8479   45.5178  268.9549 H   0  0  0  0  0  0  0  0  0  0  0  0
   89.3964   45.9846  268.1559 H   0  0  0  0  0  0  0  0  0  0  0  0
   88.3682   44.6731  267.4983 H   0  0  0  0  0  0  0  0  0  0  0  0
  1  2  2  0  0  0  0
  1  5  1  0  0  0  0
  1 31  1  0  0  0  0
  2  3  1  0  0  0  0
  2 20  1  0  0  0  0
  3  4  2  0  0  0  0
  3 32  1  0  0  0  0
  4  6  1  0  0  0  0
  4 11  1  0  0  0  0
  5  6  1  0  0  0  0
  5 10  2  0  0  0  0
  6  7  2  0  0  0  0
  7  8  1  0  0  0  0
  8  9  2  0  0  0  0
  8 33  1  0  0  0  0
  9 10  1  0  0  0  0
  9 34  1  0  0  0  0
 11 12  2  0  0  0  0
 11 14  1  0  0  0  0
 12 13  1  0  0  0  0
 12 35  1  0  0  0  0
 13 16  2  0  0  0  0
 13 36  1  0  0  0  0
 14 15  2  0  0  0  0
 14 37  1  0  0  0  0
 15 16  1  0  0  0  0
 15 19  1  0  0  0  0
 16 17  1  0  0  0  0
 17 18  2  0  0  0  0
 18 19  1  0  0  0  0
 18 38  1  0  0  0  0
 20 21  1  0  0  0  0
 20 39  1  0  0  0  0
 21 22  2  0  0  0  0
 21 26  1  0  0  0  0
 22 23  1  0  0  0  0
 22 27  1  0  0  0  0
 23 24  2  0  0  0  0
 23 40  1  0  0  0  0
 24 25  1  0  0  0  0
 24 41  1  0  0  0  0
 25 26  2  0  0  0  0
 26 42  1  0  0  0  0
 27 28  2  0  0  0  0
 27 29  2  0  0  0  0
 27 30  1  0  0  0  0
 30 43  1  0  0  0  0
 30 44  1  0  0  0  0
 30 45  1  0  0  0  0
M  END
>  <ID>
64

>  <IC50[uM]>
0.124

$$$$
