@<TRIPOS>MOLECULE
65
 45 49 0 0 0
SMALL
GASTEIGER
****
Structure written by MMmdl.
@<TRIPOS>ATOM
      1 C          93.2872   49.7956  267.6944 C.ar    1  LIG1        0.0114
      2 C          92.5687   47.3376  266.4857 C.ar    1  LIG1       -0.0130
      3 C          91.6146   48.3304  266.6749 C.ar    1  LIG1        0.0341
      4 C          91.9729   49.5341  267.2820 C.ar    1  LIG1       -0.0307
      5 C          93.8980   47.5350  266.9247 C.ar    1  LIG1        0.0915
      6 C          94.2694   48.7811  267.5256 C.ar    1  LIG1        0.0969
      7 N          95.5628   48.9608  267.9474 N.ar    1  LIG1       -0.2513
      8 C          96.4512   47.9559  267.7583 C.ar    1  LIG1        0.0464
      9 C          96.0630   46.7394  267.2050 C.ar    1  LIG1        0.0464
     10 N          94.7992   46.5230  266.7822 N.ar    1  LIG1       -0.2519
     11 C          89.7144   47.3441  265.2867 C.ar    1  LIG1        0.0748
     12 C          90.4092   47.1460  264.0888 C.ar    1  LIG1        0.0505
     13 N          89.9096   46.4507  263.0377 N.ar    1  LIG1       -0.2613
     14 C          88.6543   45.9413  263.1621 C.ar    1  LIG1        0.0295
     15 C          87.8854   46.0879  264.3158 C.ar    1  LIG1       -0.0169
     16 C          88.4232   46.7977  265.3980 C.ar    1  LIG1        0.1118
     17 S          87.4784   46.8853  266.9220 S.O2    1  LIG1       -0.0040
     18 O          86.1276   46.3963  266.6637 O.2     1  LIG1       -0.1696
     19 C          88.3703   45.6287  268.0030 C.3     1  LIG1        0.0597
     20 O          87.6748   48.2291  267.4909 O.2     1  LIG1       -0.1696
     21 N          90.2732   48.1194  266.3138 N.pl3   1  LIG1       -0.3118
     22 C          93.5885   51.1029  268.3430 C.ar    1  LIG1       -0.0137
     23 C          94.5710   51.9460  267.8128 C.ar    1  LIG1       -0.0528
     24 C          94.8648   53.1857  268.4025 C.ar    1  LIG1       -0.0453
     25 C          92.8911   51.4690  269.4891 C.ar    1  LIG1       -0.0274
     26 C          93.1676   52.6956  270.0909 C.ar    1  LIG1        0.0787
     27 C          94.1496   53.5503  269.5479 C.ar    1  LIG1        0.0390
     28 S          94.2519   54.9826  270.5782 S.2     1  LIG1       -0.0754
     29 C          93.0165   54.3044  271.5748 C.ar    1  LIG1        0.0659
     30 N          92.5431   53.1496  271.2157 N.ar    1  LIG1       -0.2474
     31 H          92.2833   46.3865  266.0492 H       1  LIG1        0.0658
     32 H          91.2132   50.2842  267.4310 H       1  LIG1        0.0643
     33 H          97.4754   48.1488  268.0479 H       1  LIG1        0.0845
     34 H          96.7730   45.9425  267.0419 H       1  LIG1        0.0845
     35 H          91.4107   47.5214  263.9722 H       1  LIG1        0.0849
     36 H          88.2682   45.3847  262.3195 H       1  LIG1        0.0830
     37 H          86.9002   45.6358  264.3812 H       1  LIG1        0.0652
     38 H          87.8462   45.5122  268.9561 H       1  LIG1        0.0468
     39 H          89.3922   45.9759  268.1641 H       1  LIG1        0.0468
     40 H          88.3733   44.6715  267.4858 H       1  LIG1        0.0468
     41 H          89.5715   48.5931  266.8725 H       1  LIG1        0.1522
     42 H          95.0968   51.6566  266.9236 H       1  LIG1        0.0624
     43 H          95.6212   53.8241  267.9680 H       1  LIG1        0.0629
     44 H          92.1446   50.8081  269.9236 H       1  LIG1        0.0645
     45 H          92.6755   54.8393  272.4460 H       1  LIG1        0.0907
@<TRIPOS>BOND
     1     1     4   ar
     2     1     6   ar
     3     1    22    1
     4     2     3   ar
     5     2     5   ar
     6     2    31    1
     7     3     4   ar
     8     3    21    1
     9     4    32    1
    10     5     6   ar
    11     5    10   ar
    12     6     7   ar
    13     7     8   ar
    14     8     9   ar
    15     8    33    1
    16     9    10   ar
    17     9    34    1
    18    11    12   ar
    19    11    16   ar
    20    11    21    1
    21    12    13   ar
    22    12    35    1
    23    13    14   ar
    24    14    15   ar
    25    14    36    1
    26    15    16   ar
    27    15    37    1
    28    16    17    1
    29    17    18    2
    30    17    19    1
    31    17    20    2
    32    19    38    1
    33    19    39    1
    34    19    40    1
    35    21    41    1
    36    22    23   ar
    37    22    25   ar
    38    23    24   ar
    39    23    42    1
    40    24    27   ar
    41    24    43    1
    42    25    26   ar
    43    25    44    1
    44    26    27   ar
    45    26    30   ar
    46    27    28   ar
    47    28    29   ar
    48    29    30   ar
    49    29    45    1
