65
 OpenBabel02152110423D
Structure written by MMmdl.
 45 49  0  0  1  0  0  0  0  0999 V2000
   93.2872   49.7956  267.6944 C   0  0  0  0  0  0  0  0  0  0  0  0
   92.5687   47.3376  266.4857 C   0  0  0  0  0  0  0  0  0  0  0  0
   91.6146   48.3304  266.6749 C   0  0  0  0  0  0  0  0  0  0  0  0
   91.9729   49.5341  267.2820 C   0  0  0  0  0  0  0  0  0  0  0  0
   93.8980   47.5350  266.9247 C   0  0  0  0  0  0  0  0  0  0  0  0
   94.2694   48.7811  267.5256 C   0  0  0  0  0  0  0  0  0  0  0  0
   95.5628   48.9608  267.9474 N   0  0  0  0  0  0  0  0  0  0  0  0
   96.4512   47.9559  267.7583 C   0  0  0  0  0  0  0  0  0  0  0  0
   96.0630   46.7394  267.2050 C   0  0  0  0  0  0  0  0  0  0  0  0
   94.7992   46.5230  266.7822 N   0  0  0  0  0  0  0  0  0  0  0  0
   89.7144   47.3441  265.2867 C   0  0  0  0  0  0  0  0  0  0  0  0
   90.4092   47.1460  264.0888 C   0  0  0  0  0  0  0  0  0  0  0  0
   89.9096   46.4507  263.0377 N   0  0  0  0  0  0  0  0  0  0  0  0
   88.6543   45.9413  263.1621 C   0  0  0  0  0  0  0  0  0  0  0  0
   87.8854   46.0879  264.3158 C   0  0  0  0  0  0  0  0  0  0  0  0
   88.4232   46.7977  265.3980 C   0  0  0  0  0  0  0  0  0  0  0  0
   87.4784   46.8853  266.9220 S   0  0  0  0  0  0  0  0  0  0  0  0
   86.1276   46.3963  266.6637 O   0  0  0  0  0  0  0  0  0  0  0  0
   88.3703   45.6287  268.0030 C   0  0  0  0  0  0  0  0  0  0  0  0
   87.6748   48.2291  267.4909 O   0  0  0  0  0  0  0  0  0  0  0  0
   90.2732   48.1194  266.3138 N   0  0  0  0  0  0  0  0  0  0  0  0
   93.5885   51.1029  268.3430 C   0  0  0  0  0  0  0  0  0  0  0  0
   94.5710   51.9460  267.8128 C   0  0  0  0  0  0  0  0  0  0  0  0
   94.8648   53.1857  268.4025 C   0  0  0  0  0  0  0  0  0  0  0  0
   92.8911   51.4690  269.4891 C   0  0  0  0  0  0  0  0  0  0  0  0
   93.1676   52.6956  270.0909 C   0  0  0  0  0  0  0  0  0  0  0  0
   94.1496   53.5503  269.5479 C   0  0  0  0  0  0  0  0  0  0  0  0
   94.2519   54.9826  270.5782 S   0  0  0  0  0  0  0  0  0  0  0  0
   93.0165   54.3044  271.5748 C   0  0  0  0  0  0  0  0  0  0  0  0
   92.5431   53.1496  271.2157 N   0  0  0  0  0  0  0  0  0  0  0  0
   92.2833   46.3865  266.0492 H   0  0  0  0  0  0  0  0  0  0  0  0
   91.2132   50.2842  267.4310 H   0  0  0  0  0  0  0  0  0  0  0  0
   97.4754   48.1488  268.0479 H   0  0  0  0  0  0  0  0  0  0  0  0
   96.7730   45.9425  267.0419 H   0  0  0  0  0  0  0  0  0  0  0  0
   91.4107   47.5214  263.9722 H   0  0  0  0  0  0  0  0  0  0  0  0
   88.2682   45.3847  262.3195 H   0  0  0  0  0  0  0  0  0  0  0  0
   86.9002   45.6358  264.3812 H   0  0  0  0  0  0  0  0  0  0  0  0
   87.8462   45.5122  268.9561 H   0  0  0  0  0  0  0  0  0  0  0  0
   89.3922   45.9759  268.1641 H   0  0  0  0  0  0  0  0  0  0  0  0
   88.3733   44.6715  267.4858 H   0  0  0  0  0  0  0  0  0  0  0  0
   89.5715   48.5931  266.8725 H   0  0  0  0  0  0  0  0  0  0  0  0
   95.0968   51.6566  266.9236 H   0  0  0  0  0  0  0  0  0  0  0  0
   95.6212   53.8241  267.9680 H   0  0  0  0  0  0  0  0  0  0  0  0
   92.1446   50.8081  269.9236 H   0  0  0  0  0  0  0  0  0  0  0  0
   92.6755   54.8393  272.4460 H   0  0  0  0  0  0  0  0  0  0  0  0
  1  4  1  0  0  0  0
  1  6  2  0  0  0  0
  1 22  1  0  0  0  0
  2  3  1  0  0  0  0
  2  5  2  0  0  0  0
  2 31  1  0  0  0  0
  3  4  2  0  0  0  0
  3 21  1  0  0  0  0
  4 32  1  0  0  0  0
  5  6  1  0  0  0  0
  5 10  1  0  0  0  0
  6  7  1  0  0  0  0
  7  8  2  0  0  0  0
  8  9  1  0  0  0  0
  8 33  1  0  0  0  0
  9 10  2  0  0  0  0
  9 34  1  0  0  0  0
 11 12  2  0  0  0  0
 11 16  1  0  0  0  0
 11 21  1  0  0  0  0
 12 13  1  0  0  0  0
 12 35  1  0  0  0  0
 13 14  2  0  0  0  0
 14 15  1  0  0  0  0
 14 36  1  0  0  0  0
 15 16  2  0  0  0  0
 15 37  1  0  0  0  0
 16 17  1  0  0  0  0
 17 18  2  0  0  0  0
 17 19  1  0  0  0  0
 17 20  2  0  0  0  0
 19 38  1  0  0  0  0
 19 39  1  0  0  0  0
 19 40  1  0  0  0  0
 21 41  1  0  0  0  0
 22 23  2  0  0  0  0
 22 25  1  0  0  0  0
 23 24  1  0  0  0  0
 23 42  1  0  0  0  0
 24 27  2  0  0  0  0
 24 43  1  0  0  0  0
 25 26  2  0  0  0  0
 25 44  1  0  0  0  0
 26 27  1  0  0  0  0
 26 30  1  0  0  0  0
 27 28  1  0  0  0  0
 28 29  1  0  0  0  0
 29 30  2  0  0  0  0
 29 45  1  0  0  0  0
M  END
>  <ID>
65

>  <IC50[uM]>
0.111

$$$$
