@<TRIPOS>MOLECULE
67
 47 51 0 0 0
SMALL
GASTEIGER
****
Structure written by MMmdl.
@<TRIPOS>ATOM
      1 C          93.1004   49.7216  267.7155 C.ar    1  LIG1        0.0114
      2 C          92.5890   47.2745  266.3896 C.ar    1  LIG1       -0.0130
      3 C          91.5683   48.2049  266.5759 C.ar    1  LIG1        0.0341
      4 C          91.8300   49.4026  267.2297 C.ar    1  LIG1       -0.0307
      5 C          93.8878   47.5400  266.8820 C.ar    1  LIG1        0.0915
      6 C          94.1599   48.7802  267.5411 C.ar    1  LIG1        0.0969
      7 N          95.4145   49.0346  268.0280 N.ar    1  LIG1       -0.2513
      8 C          96.3713   48.0905  267.8536 C.ar    1  LIG1        0.0464
      9 C          96.0910   46.8809  267.2282 C.ar    1  LIG1        0.0464
     10 N          94.8599   46.5971  266.7393 N.ar    1  LIG1       -0.2519
     11 C          93.2846   50.9778  268.4857 C.ar    1  LIG1       -0.0137
     12 C          94.2454   51.9199  268.1045 C.ar    1  LIG1       -0.0528
     13 C          94.4590   53.0941  268.8278 C.ar    1  LIG1       -0.0453
     14 C          92.5073   51.1876  269.6303 C.ar    1  LIG1       -0.0274
     15 N          90.2493   47.9429  266.1975 N.pl3   1  LIG1       -0.3118
     16 C          89.6938   47.1846  265.1577 C.ar    1  LIG1        0.0748
     17 C          90.3836   46.9926  263.9558 C.ar    1  LIG1        0.0505
     18 N          89.8604   46.3316  262.8928 N.ar    1  LIG1       -0.2613
     19 C          88.6069   45.8318  263.0224 C.ar    1  LIG1        0.0295
     20 C          87.8451   45.9660  264.1837 C.ar    1  LIG1       -0.0169
     21 C          88.3928   46.6627  265.2677 C.ar    1  LIG1        0.1118
     22 S          87.4640   46.8258  266.7979 S.O2    1  LIG1       -0.0040
     23 O          87.6173   48.2190  267.2276 O.2     1  LIG1       -0.1696
     24 O          86.1278   46.2817  266.5368 O.2     1  LIG1       -0.1696
     25 C          88.2895   45.7139  268.0726 C.3     1  LIG1        0.0597
     26 C          92.7122   52.3451  270.3867 C.ar    1  LIG1        0.0808
     27 C          93.6742   53.3006  269.9675 C.ar    1  LIG1        0.0408
     28 S          93.6619   54.6467  271.0869 S.2     1  LIG1       -0.0526
     29 C          92.4847   53.7751  272.0143 C.ar    1  LIG1        0.1566
     30 N          92.0618   52.6441  271.5401 N.ar    1  LIG1       -0.2251
     31 N          92.0618   54.3270  273.1729 N.pl3   1  LIG1       -0.3375
     32 H          92.3771   46.3274  265.9191 H       1  LIG1        0.0658
     33 H          91.0166   50.1019  267.3766 H       1  LIG1        0.0643
     34 H          97.3578   48.3186  268.2289 H       1  LIG1        0.0845
     35 H          96.8555   46.1283  267.0976 H       1  LIG1        0.0845
     36 H          94.8420   51.7360  267.2204 H       1  LIG1        0.0624
     37 H          95.2043   53.8135  268.5140 H       1  LIG1        0.0629
     38 H          91.7753   50.4604  269.9472 H       1  LIG1        0.0645
     39 H          89.5427   48.3411  266.8073 H       1  LIG1        0.1522
     40 H          91.3786   47.3860  263.8271 H       1  LIG1        0.0849
     41 H          88.2110   45.2945  262.1738 H       1  LIG1        0.0830
     42 H          86.8592   45.5273  264.2271 H       1  LIG1        0.0652
     43 H          87.7064   45.7620  268.9919 H       1  LIG1        0.0468
     44 H          89.2978   46.0801  268.2656 H       1  LIG1        0.0468
     45 H          88.3046   44.6950  267.6961 H       1  LIG1        0.0468
     46 H          92.2225   55.3228  273.3257 H       1  LIG1        0.1442
     47 H          91.2849   53.9294  273.6848 H       1  LIG1        0.1442
@<TRIPOS>BOND
     1     1     4   ar
     2     1     6   ar
     3     1    11    1
     4     2     3   ar
     5     2     5   ar
     6     2    32    1
     7     3     4   ar
     8     3    15    1
     9     4    33    1
    10     5     6   ar
    11     5    10   ar
    12     6     7   ar
    13     7     8   ar
    14     8     9   ar
    15     8    34    1
    16     9    10   ar
    17     9    35    1
    18    11    12   ar
    19    11    14   ar
    20    12    13   ar
    21    12    36    1
    22    13    27   ar
    23    13    37    1
    24    14    26   ar
    25    14    38    1
    26    15    16    1
    27    15    39    1
    28    16    17   ar
    29    16    21   ar
    30    17    18   ar
    31    17    40    1
    32    18    19   ar
    33    19    20   ar
    34    19    41    1
    35    20    21   ar
    36    20    42    1
    37    21    22    1
    38    22    23    2
    39    22    24    2
    40    22    25    1
    41    25    43    1
    42    25    44    1
    43    25    45    1
    44    26    27   ar
    45    26    30   ar
    46    27    28   ar
    47    28    29   ar
    48    29    30   ar
    49    29    31    1
    50    31    46    1
    51    31    47    1
