68
 OpenBabel02152110423D
Structure written by MMmdl.
 48 52  0  0  1  0  0  0  0  0999 V2000
   92.5906   47.2900  266.3444 C   0  0  0  0  0  0  0  0  0  0  0  0
   91.5700   48.2152  266.5159 C   0  0  0  0  0  0  0  0  0  0  0  0
   91.8167   49.4248  267.1546 C   0  0  0  0  0  0  0  0  0  0  0  0
   93.0889   49.7623  267.6340 C   0  0  0  0  0  0  0  0  0  0  0  0
   93.8920   47.5770  266.8285 C   0  0  0  0  0  0  0  0  0  0  0  0
   94.1480   48.8244  267.4865 C   0  0  0  0  0  0  0  0  0  0  0  0
   95.3850   49.0832  268.0126 N   0  0  0  0  0  0  0  0  0  0  0  0
   96.3430   48.1354  267.8658 C   0  0  0  0  0  0  0  0  0  0  0  0
   96.0897   46.9257  267.2216 C   0  0  0  0  0  0  0  0  0  0  0  0
   94.8705   46.6478  266.6904 N   0  0  0  0  0  0  0  0  0  0  0  0
   93.2613   51.0285  268.3807 C   0  0  0  0  0  0  0  0  0  0  0  0
   90.2520   47.9338  266.1399 N   0  0  0  0  0  0  0  0  0  0  0  0
   89.7015   47.1928  265.0832 C   0  0  0  0  0  0  0  0  0  0  0  0
   90.4532   46.9549  263.9208 C   0  0  0  0  0  0  0  0  0  0  0  0
   89.9543   46.3298  262.8373 N   0  0  0  0  0  0  0  0  0  0  0  0
   88.6785   45.8812  262.8956 C   0  0  0  0  0  0  0  0  0  0  0  0
   87.8678   46.0387  264.0101 C   0  0  0  0  0  0  0  0  0  0  0  0
   88.3733   46.7249  265.1240 C   0  0  0  0  0  0  0  0  0  0  0  0
   87.3145   46.9352  266.5561 S   0  0  0  0  0  0  0  0  0  0  0  0
   87.5376   48.2780  267.1026 O   0  0  0  0  0  0  0  0  0  0  0  0
   85.9614   46.5209  266.1752 O   0  0  0  0  0  0  0  0  0  0  0  0
   88.0033   45.6830  267.7810 C   0  0  0  0  0  0  0  0  0  0  0  0
   94.2676   51.9515  268.0760 C   0  0  0  0  0  0  0  0  0  0  0  0
   94.4607   53.0907  268.8507 C   0  0  0  0  0  0  0  0  0  0  0  0
   92.4286   51.2390  269.4665 C   0  0  0  0  0  0  0  0  0  0  0  0
   92.6104   52.3297  270.2980 C   0  0  0  0  0  0  0  0  0  0  0  0
   93.6343   53.2671  269.9747 C   0  0  0  0  0  0  0  0  0  0  0  0
   93.6567   54.5790  271.1456 S   0  0  0  0  0  0  0  0  0  0  0  0
   92.4470   53.7602  272.0760 C   0  0  0  0  0  0  0  0  0  0  0  0
   91.9259   52.6515  271.4883 C   0  0  0  0  0  0  0  0  0  0  0  0
   92.0631   54.2673  273.2652 N   0  0  0  0  0  0  0  0  0  0  0  0
   92.3935   46.3273  265.8991 H   0  0  0  0  0  0  0  0  0  0  0  0
   90.9990   50.1186  267.2856 H   0  0  0  0  0  0  0  0  0  0  0  0
   97.3205   48.3625  268.2827 H   0  0  0  0  0  0  0  0  0  0  0  0
   96.8504   46.1676  267.1458 H   0  0  0  0  0  0  0  0  0  0  0  0
   89.5363   48.3371  266.7430 H   0  0  0  0  0  0  0  0  0  0  0  0
   91.4671   47.3133  263.8480 H   0  0  0  0  0  0  0  0  0  0  0  0
   88.3025   45.3523  262.0332 H   0  0  0  0  0  0  0  0  0  0  0  0
   86.8652   45.6243  264.0193 H   0  0  0  0  0  0  0  0  0  0  0  0
   87.4147   45.7414  268.6992 H   0  0  0  0  0  0  0  0  0  0  0  0
   89.0405   45.9170  267.9869 H   0  0  0  0  0  0  0  0  0  0  0  0
   87.9100   44.6873  267.3524 H   0  0  0  0  0  0  0  0  0  0  0  0
   94.9129   51.7823  267.2254 H   0  0  0  0  0  0  0  0  0  0  0  0
   95.2369   53.8087  268.6088 H   0  0  0  0  0  0  0  0  0  0  0  0
   91.6707   50.5120  269.7113 H   0  0  0  0  0  0  0  0  0  0  0  0
   91.1413   52.0603  271.9230 H   0  0  0  0  0  0  0  0  0  0  0  0
   92.2887   55.2418  273.4713 H   0  0  0  0  0  0  0  0  0  0  0  0
   91.1958   53.9428  273.7133 H   0  0  0  0  0  0  0  0  0  0  0  0
  1  2  2  0  0  0  0
  1  5  1  0  0  0  0
  1 32  1  0  0  0  0
  2  3  1  0  0  0  0
  2 12  1  0  0  0  0
  3  4  2  0  0  0  0
  3 33  1  0  0  0  0
  4  6  1  0  0  0  0
  4 11  1  0  0  0  0
  5  6  1  0  0  0  0
  5 10  2  0  0  0  0
  6  7  2  0  0  0  0
  7  8  1  0  0  0  0
  8  9  2  0  0  0  0
  8 34  1  0  0  0  0
  9 10  1  0  0  0  0
  9 35  1  0  0  0  0
 11 23  2  0  0  0  0
 11 25  1  0  0  0  0
 12 13  1  0  0  0  0
 12 36  1  0  0  0  0
 13 14  2  0  0  0  0
 13 18  1  0  0  0  0
 14 15  1  0  0  0  0
 14 37  1  0  0  0  0
 15 16  2  0  0  0  0
 16 17  1  0  0  0  0
 16 38  1  0  0  0  0
 17 18  2  0  0  0  0
 17 39  1  0  0  0  0
 18 19  1  0  0  0  0
 19 20  2  0  0  0  0
 19 21  2  0  0  0  0
 19 22  1  0  0  0  0
 22 40  1  0  0  0  0
 22 41  1  0  0  0  0
 22 42  1  0  0  0  0
 23 24  1  0  0  0  0
 23 43  1  0  0  0  0
 24 27  2  0  0  0  0
 24 44  1  0  0  0  0
 25 26  2  0  0  0  0
 25 45  1  0  0  0  0
 26 27  1  0  0  0  0
 26 30  1  0  0  0  0
 27 28  1  0  0  0  0
 28 29  1  0  0  0  0
 29 30  2  0  0  0  0
 29 31  1  0  0  0  0
 30 46  1  0  0  0  0
 31 47  1  0  0  0  0
 31 48  1  0  0  0  0
M  END
>  <ID>
68

>  <IC50[uM]>
0.068

$$$$
