@<TRIPOS>MOLECULE
69
 49 53 0 0 0
SMALL
GASTEIGER
****
Structure written by MMmdl.
@<TRIPOS>ATOM
      1 C          92.5766   47.3309  266.4823 C.ar    1  LIG1       -0.0130
      2 C          91.6148   48.3287  266.6699 C.ar    1  LIG1        0.0341
      3 C          91.9741   49.5270  267.2715 C.ar    1  LIG1       -0.0307
      4 C          93.2916   49.7960  267.6866 C.ar    1  LIG1        0.0113
      5 C          93.9014   47.5331  266.9271 C.ar    1  LIG1        0.0915
      6 C          94.2765   48.7751  267.5225 C.ar    1  LIG1        0.0969
      7 N          95.5666   48.9639  267.9549 N.ar    1  LIG1       -0.2513
      8 C          96.4588   47.9530  267.7690 C.ar    1  LIG1        0.0464
      9 C          96.0739   46.7411  267.2208 C.ar    1  LIG1        0.0464
     10 N          94.8067   46.5203  266.7924 N.ar    1  LIG1       -0.2519
     11 C          93.6005   51.1028  268.3248 C.ar    1  LIG1       -0.0151
     12 N          90.2860   48.1138  266.3106 N.pl3   1  LIG1       -0.3118
     13 C          94.5623   51.9414  267.7983 C.ar    1  LIG1       -0.0529
     14 C          94.8762   53.1779  268.3684 C.ar    1  LIG1       -0.0468
     15 C          92.9054   51.4651  269.4885 C.ar    1  LIG1       -0.0455
     16 C          93.1902   52.6828  270.1257 C.ar    1  LIG1       -0.0073
     17 C          94.1684   53.5476  269.5283 C.ar    1  LIG1        0.0196
     18 S          94.3714   55.0131  270.4720 S.2     1  LIG1       -0.0964
     19 C          93.2135   54.4474  271.6124 C.ar    1  LIG1       -0.0203
     20 C          92.6673   53.2239  271.3361 C.ar    1  LIG1       -0.0357
     21 C          91.6712   52.4815  272.2020 C.3     1  LIG1       -0.0386
     22 C          89.7166   47.3368  265.2886 C.ar    1  LIG1        0.0748
     23 C          88.4227   46.7955  265.3959 C.ar    1  LIG1        0.1118
     24 C          87.8901   46.0818  264.3157 C.ar    1  LIG1       -0.0169
     25 C          88.6567   45.9315  263.1642 C.ar    1  LIG1        0.0295
     26 N          89.9099   46.4368  263.0398 N.ar    1  LIG1       -0.2613
     27 C          90.4190   47.1179  264.0901 C.ar    1  LIG1        0.0505
     28 S          87.4814   46.9006  266.9167 S.O2    1  LIG1       -0.0040
     29 C          88.3689   45.6582  268.0136 C.3     1  LIG1        0.0597
     30 O          86.1255   46.4116  266.6625 O.2     1  LIG1       -0.1696
     31 O          87.6845   48.2469  267.4796 O.2     1  LIG1       -0.1696
     32 H          92.2862   46.3816  266.0648 H       1  LIG1        0.0658
     33 H          91.2203   50.2856  267.4256 H       1  LIG1        0.0643
     34 H          97.4800   48.1539  268.0556 H       1  LIG1        0.0845
     35 H          96.7815   45.9404  267.0540 H       1  LIG1        0.0845
     36 H          89.5700   48.5859  266.8683 H       1  LIG1        0.1522
     37 H          95.1014   51.6480  266.9015 H       1  LIG1        0.0624
     38 H          95.6230   53.8125  267.9390 H       1  LIG1        0.0629
     39 H          92.1852   50.8006  269.9165 H       1  LIG1        0.0630
     40 H          93.0079   55.0675  272.4571 H       1  LIG1        0.0696
     41 H          90.7466   52.2293  271.6900 H       1  LIG1        0.0278
     42 H          91.4133   53.0763  273.0778 H       1  LIG1        0.0278
     43 H          92.1070   51.5533  272.5792 H       1  LIG1        0.0278
     44 H          86.9017   45.6336  264.3868 H       1  LIG1        0.0652
     45 H          88.2688   45.3809  262.3227 H       1  LIG1        0.0830
     46 H          91.4028   47.5361  263.9698 H       1  LIG1        0.0849
     47 H          87.8476   45.5993  268.9654 H       1  LIG1        0.0468
     48 H          89.3932   45.9992  268.1524 H       1  LIG1        0.0468
     49 H          88.3540   44.6911  267.5145 H       1  LIG1        0.0468
@<TRIPOS>BOND
     1     1     2   ar
     2     1     5   ar
     3     1    32    1
     4     2     3   ar
     5     2    12    1
     6     3     4   ar
     7     3    33    1
     8     4     6   ar
     9     4    11    1
    10     5     6   ar
    11     5    10   ar
    12     6     7   ar
    13     7     8   ar
    14     8     9   ar
    15     8    34    1
    16     9    10   ar
    17     9    35    1
    18    11    13   ar
    19    11    15   ar
    20    12    22    1
    21    12    36    1
    22    13    14   ar
    23    13    37    1
    24    14    17   ar
    25    14    38    1
    26    15    16   ar
    27    15    39    1
    28    16    17   ar
    29    16    20   ar
    30    17    18   ar
    31    18    19   ar
    32    19    20   ar
    33    19    40    1
    34    20    21    1
    35    21    41    1
    36    21    42    1
    37    21    43    1
    38    22    23   ar
    39    22    27   ar
    40    23    24   ar
    41    23    28    1
    42    24    25   ar
    43    24    44    1
    44    25    26   ar
    45    25    45    1
    46    26    27   ar
    47    27    46    1
    48    28    29    1
    49    28    30    2
    50    28    31    2
    51    29    47    1
    52    29    48    1
    53    29    49    1
