lig_38_L
     RDKit          3D

 52 55  0  0  0  0  0  0  0  0999 V2000
   15.8120  -11.2710   17.5710 C   0  0  0  0  0  0  0  0  0  0  0  0
   16.3280  -12.5650   17.8930 O   0  0  0  0  0  0  0  0  0  0  0  0
   17.6720  -12.6750   17.4160 C   0  0  0  0  0  0  0  0  0  0  0  0
    8.3330   -3.1610   15.8840 C   0  0  0  0  0  0  0  0  0  0  0  0
   15.6850  -12.0290   15.2060 C   0  0  0  0  0  0  0  0  0  0  0  0
   16.4650  -11.5270   14.2250 F   0  0  0  0  0  0  0  0  0  0  0  0
   14.4840  -12.3720   14.6940 F   0  0  0  0  0  0  0  0  0  0  0  0
   16.2760  -13.1210   15.7370 F   0  0  0  0  0  0  0  0  0  0  0  0
   14.3490   -6.1890   18.8260 O   0  0  0  0  0  0  0  0  0  0  0  0
   15.4290   -5.3490   16.9710 N   0  0  0  0  0  0  0  0  0  0  0  0
   15.6430  -10.3490   18.5320 C   0  0  0  0  0  0  0  0  0  0  0  0
   14.8550   -6.7880   15.3480 N   0  0  0  0  0  0  0  0  0  0  0  0
   15.1430   -9.0830   18.2500 C   0  0  0  0  0  0  0  0  0  0  0  0
   16.4320   -5.1830   14.8490 N   0  0  0  0  0  0  0  0  0  0  0  0
   14.7990   -8.7380   16.9380 C   0  0  0  0  0  0  0  0  0  0  0  0
    9.8820   -2.9390   14.0970 N   0  0  0  0  0  0  0  0  0  0  0  0
   14.9840   -9.7160   15.9500 C   0  0  0  0  0  0  0  0  0  0  0  0
   15.4900  -10.9660   16.3030 C   0  0  0  0  0  0  0  0  0  0  0  0
   14.2470   -7.3370   16.6190 C   0  0  1  0  0  0  0  0  0  0  0  0
   14.6650   -6.2530   17.6450 C   0  0  0  0  0  0  0  0  0  0  0  0
   15.5450   -5.7480   15.6900 C   0  0  0  0  0  0  0  0  0  0  0  0
   16.0040   -4.1780   17.5850 C   0  0  0  0  0  0  0  0  0  0  0  0
   12.7180   -7.3670   16.5030 C   0  0  0  0  0  0  0  0  0  0  0  0
   11.9360   -8.4980   16.7650 C   0  0  0  0  0  0  0  0  0  0  0  0
   10.5480   -8.4390   16.6340 C   0  0  0  0  0  0  0  0  0  0  0  0
    9.9140   -7.2600   16.2460 C   0  0  0  0  0  0  0  0  0  0  0  0
   10.6620   -6.1100   15.9770 C   0  0  0  0  0  0  0  0  0  0  0  0
   12.0570   -6.1860   16.1130 C   0  0  0  0  0  0  0  0  0  0  0  0
   10.0240   -4.8560   15.5740 C   0  0  0  0  0  0  0  0  0  0  0  0
   10.4490   -4.1010   14.4970 C   0  0  0  0  0  0  0  0  0  0  0  0
    8.8380   -2.5170   14.8220 C   0  0  0  0  0  0  0  0  0  0  0  0
    8.9370   -4.3070   16.2330 C   0  0  0  0  0  0  0  0  0  0  0  0
    8.5450   -4.8450   17.0960 H   0  0  0  0  0  0  0  0  0  0  0  0
   16.2120   -4.3830   18.6350 H   0  0  0  0  0  0  0  0  0  0  0  0
   15.9050  -10.6000   19.5600 H   0  0  0  0  0  0  0  0  0  0  0  0
   15.0180   -8.3560   19.0530 H   0  0  0  0  0  0  0  0  0  0  0  0
   14.7350   -9.4990   14.9110 H   0  0  0  0  0  0  0  0  0  0  0  0
    8.3670   -1.5800   14.5230 H   0  0  0  0  0  0  0  0  0  0  0  0
   17.9780  -11.7290   16.9690 H   0  0  0  0  0  0  0  0  0  0  0  0
    9.9510   -9.3280   16.8380 H   0  0  0  0  0  0  0  0  0  0  0  0
   12.4130   -9.4280   17.0730 H   0  0  0  0  0  0  0  0  0  0  0  0
    8.8280   -7.2340   16.1520 H   0  0  0  0  0  0  0  0  0  0  0  0
   12.6520   -5.2960   15.9090 H   0  0  0  0  0  0  0  0  0  0  0  0
   11.3030   -4.4680   13.9280 H   0  0  0  0  0  0  0  0  0  0  0  0
    7.4760   -2.7740   16.4360 H   0  0  0  0  0  0  0  0  0  0  0  0
   15.3040   -3.3460   17.5080 H   0  0  0  0  0  0  0  0  0  0  0  0
   17.7280  -13.4660   16.6670 H   0  0  0  0  0  0  0  0  0  0  0  0
   16.9320   -3.9200   17.0750 H   0  0  0  0  0  0  0  0  0  0  0  0
   18.3340  -12.9150   18.2470 H   0  0  0  0  0  0  0  0  0  0  0  0
   16.5710   -5.5710   13.9270 H   0  0  0  0  0  0  0  0  0  0  0  0
   14.8144   -7.0709   14.3793 H   0  0  0  0  0  0  0  0  0  0  0  0
   16.9580   -4.3715   15.1404 H   0  0  0  0  0  0  0  0  0  0  0  0
  1  2  1  0
  1 11  2  0
  1 18  1  0
  2  3  1  0
  3 39  1  0
  3 47  1  0
  3 49  1  0
  4 31  2  0
  4 32  1  0
  4 45  1  0
  5  6  1  0
  5  7  1  0
  5  8  1  0
  5 18  1  0
  9 20  2  0
 10 20  1  0
 10 21  1  0
 10 22  1  0
 11 13  1  0
 11 35  1  0
 12 19  1  0
 12 21  2  0
 12 51  1  0
 13 15  2  0
 13 36  1  0
 14 21  1  0
 14 50  1  0
 14 52  1  0
 15 17  1  0
 19 15  1  1
 16 30  2  0
 16 31  1  0
 17 18  2  0
 17 37  1  0
 19 20  1  0
 19 23  1  0
 22 34  1  0
 22 46  1  0
 22 48  1  0
 23 24  2  0
 23 28  1  0
 24 25  1  0
 24 41  1  0
 25 26  2  0
 25 40  1  0
 26 27  1  0
 26 42  1  0
 27 28  2  0
 27 29  1  0
 28 43  1  0
 29 30  1  0
 29 32  2  0
 30 44  1  0
 31 38  1  0
 32 33  1  0
M  CHG  1  12   1
M  END
>  <s_m_entry_id>  (1) 
11

>  <s_m_entry_name>  (1) 
lig_38_L.1

>  <s_pdb_PDB_TITLE>  (1) 
MX MODEL

>  <i_pdb_PDB_Model>  (1) 
1

>  <s_pdb_PDB_format_version>  (1) 
3

>  <s_m_Source_Path>  (1) 
/projects/CNS/OGA/FEP_compare/PLBenchmarks/PLBenchmarks/data/2020-02-06_bace_p2/03_docked

>  <s_m_Source_File>  (1) 
lig_38_L.pdb

>  <i_m_Source_File_Index>  (1) 
1

$$$$
