lig_18660-1
     RDKit          3D

 52 53  0  0  0  0  0  0  0  0999 V2000
   21.2240   13.7580   29.7740 C   0  0  0  0  0  0  0  0  0  0  0  0
   22.9860   13.4240   29.4250 S   0  0  0  0  0  0  0  0  0  0  0  0
   23.3320   14.1350   28.1850 O   0  0  0  0  0  0  0  0  0  0  0  0
   23.7520   13.6650   30.6540 O   0  0  0  0  0  0  0  0  0  0  0  0
   23.0350   11.6250   29.1010 C   0  0  0  0  0  0  0  0  0  0  0  0
   23.2420   10.8260   30.3900 C   0  0  0  0  0  0  0  0  0  0  0  0
   22.1370   11.0910   31.2620 O   0  0  0  0  0  0  0  0  0  0  0  0
   21.3480   10.0700   31.7540 C   0  0  0  0  0  0  0  0  0  0  0  0
   21.6930    8.8110   31.3990 N   0  0  0  0  0  0  0  0  0  0  0  0
   20.9170    7.8000   31.7870 C   0  0  0  0  0  0  0  0  0  0  0  0
   19.7850    7.9630   32.5720 C   0  0  0  0  0  0  0  0  0  0  0  0
   19.4340    9.2500   32.9460 C   0  0  0  0  0  0  0  0  0  0  0  0
   18.2720    9.3640   33.7010 N   0  0  0  0  0  0  0  0  0  0  0  0
   20.2240   10.3410   32.5430 C   0  0  0  0  0  0  0  0  0  0  0  0
   19.9110   11.7210   32.8950 C   0  0  0  0  0  0  0  0  0  0  0  0
   19.6710   12.8210   33.1670 N   0  0  0  0  0  0  0  0  0  0  0  0
   21.4150    6.6270   31.2770 N   0  0  0  0  0  0  0  0  0  0  0  0
   20.7990    5.4740   31.0440 C   0  0  0  0  0  0  0  0  0  0  0  0
   19.6160    5.2720   31.3030 O   0  0  0  0  0  0  0  0  0  0  0  0
   21.6200    4.4090   30.3250 C   0  0  0  0  0  0  0  0  0  0  0  0
   22.9820    4.1290   30.9580 C   0  0  0  0  0  0  0  0  0  0  0  0
   24.0820    4.9600   30.6890 C   0  0  0  0  0  0  0  0  0  0  0  0
   23.8690    6.0490   29.8630 O   0  0  0  0  0  0  0  0  0  0  0  0
   24.9420    6.9460   29.5870 C   0  0  0  0  0  0  0  0  0  0  0  0
   25.3200    4.6480   31.2680 C   0  0  0  0  0  0  0  0  0  0  0  0
   25.4500    3.5510   32.1200 C   0  0  0  0  0  0  0  0  0  0  0  0
   24.3620    2.7260   32.3920 C   0  0  0  0  0  0  0  0  0  0  0  0
   23.1280    3.0230   31.8010 C   0  0  0  0  0  0  0  0  0  0  0  0
   24.5820    1.6650   33.2460 O   0  0  0  0  0  0  0  0  0  0  0  0
   23.6520    0.5850   33.2550 C   0  0  0  0  0  0  0  0  0  0  0  0
   20.6220   13.4450   28.9240 H   0  0  0  0  0  0  0  0  0  0  0  0
   20.9240   13.2060   30.6600 H   0  0  0  0  0  0  0  0  0  0  0  0
   21.0980   14.8220   29.9580 H   0  0  0  0  0  0  0  0  0  0  0  0
   22.1220   11.3400   28.5830 H   0  0  0  0  0  0  0  0  0  0  0  0
   23.8610   11.4530   28.4150 H   0  0  0  0  0  0  0  0  0  0  0  0
   23.4140    9.7840   30.1200 H   0  0  0  0  0  0  0  0  0  0  0  0
   24.1560   11.1350   30.8980 H   0  0  0  0  0  0  0  0  0  0  0  0
   19.1830    7.1220   32.8690 H   0  0  0  0  0  0  0  0  0  0  0  0
   17.9080   10.2800   33.9500 H   0  0  0  0  0  0  0  0  0  0  0  0
   17.7980    8.5270   34.0310 H   0  0  0  0  0  0  0  0  0  0  0  0
   22.3650    6.7220   30.9520 H   0  0  0  0  0  0  0  0  0  0  0  0
   21.0530    3.4880   30.2400 H   0  0  0  0  0  0  0  0  0  0  0  0
   21.7620    4.7820   29.3170 H   0  0  0  0  0  0  0  0  0  0  0  0
   25.7710    6.4420   29.0870 H   0  0  0  0  0  0  0  0  0  0  0  0
   24.5890    7.7310   28.9190 H   0  0  0  0  0  0  0  0  0  0  0  0
   25.3080    7.4300   30.4930 H   0  0  0  0  0  0  0  0  0  0  0  0
   26.1940    5.2500   31.0720 H   0  0  0  0  0  0  0  0  0  0  0  0
   26.4050    3.3250   32.5720 H   0  0  0  0  0  0  0  0  0  0  0  0
   22.2760    2.3890   31.9880 H   0  0  0  0  0  0  0  0  0  0  0  0
   24.0230   -0.2000   33.9140 H   0  0  0  0  0  0  0  0  0  0  0  0
   22.6720    0.8800   33.6280 H   0  0  0  0  0  0  0  0  0  0  0  0
   23.5370    0.1480   32.2630 H   0  0  0  0  0  0  0  0  0  0  0  0
  1  2  1  0
  1 31  1  0
  1 32  1  0
  1 33  1  0
  2  3  2  0
  2  4  2  0
  2  5  1  0
  5  6  1  0
  5 34  1  0
  5 35  1  0
  6  7  1  0
  6 36  1  0
  6 37  1  0
  7  8  1  0
  8 14  2  0
  8  9  1  0
  9 10  2  0
 10 11  1  0
 10 17  1  0
 11 12  2  0
 11 38  1  0
 12 13  1  0
 12 14  1  0
 13 39  1  0
 13 40  1  0
 14 15  1  0
 15 16  3  0
 17 18  1  0
 17 41  1  0
 18 19  2  0
 18 20  1  0
 20 21  1  0
 20 42  1  0
 20 43  1  0
 21 28  1  0
 21 22  2  0
 22 23  1  0
 22 25  1  0
 23 24  1  0
 24 44  1  0
 24 45  1  0
 24 46  1  0
 25 26  2  0
 25 47  1  0
 26 27  1  0
 26 48  1  0
 27 28  2  0
 27 29  1  0
 28 49  1  0
 29 30  1  0
 30 50  1  0
 30 51  1  0
 30 52  1  0
M  END
$$$$
