lig_48
  -OEChem-01312017303D

 42 45  0     0  0  0  0  0  0999 V2000
    3.8100  -50.0800    6.4300 O   0  5  0  0  0  0  0  0  0  0  0  0
    2.9400  -49.1700    6.5100 C   0  0  0  0  0  0  0  0  0  0  0  0
    3.2800  -47.9700    6.6700 O   0  0  0  0  0  0  0  0  0  0  0  0
    1.5200  -49.6100    6.4100 C   0  0  0  0  0  0  0  0  0  0  0  0
    1.0100  -51.1700    6.8300 N   0  0  0  0  0  0  0  0  0  0  0  0
    1.5300  -51.9500    7.1800 H   0  0  0  0  0  0  0  0  0  0  0  0
   -0.6500  -51.0200    6.4700 C   0  0  0  0  0  0  0  0  0  0  0  0
   -1.7400  -51.8800    6.5500 C   0  0  0  0  0  0  0  0  0  0  0  0
   -1.5900  -52.9000    6.8900 H   0  0  0  0  0  0  0  0  0  0  0  0
   -3.0100  -51.4600    6.1900 C   0  0  0  0  0  0  0  0  0  0  0  0
   -3.8500  -52.1300    6.2600 H   0  0  0  0  0  0  0  0  0  0  0  0
   -3.1800  -50.1500    5.7300 C   0  0  0  0  0  0  0  0  0  0  0  0
   -4.1700  -49.8000    5.4500 H   0  0  0  0  0  0  0  0  0  0  0  0
   -2.1000  -49.2800    5.6300 C   0  0  0  0  0  0  0  0  0  0  0  0
   -2.2500  -48.2700    5.2600 H   0  0  0  0  0  0  0  0  0  0  0  0
   -0.8300  -49.7000    6.0100 C   0  0  0  0  0  0  0  0  0  0  0  0
    0.3700  -48.9100    5.9700 C   0  0  0  0  0  0  0  0  0  0  0  0
    0.4000  -47.4900    5.5200 C   0  0  0  0  0  0  0  0  0  0  0  0
    1.1900  -47.3900    4.7800 H   0  0  0  0  0  0  0  0  0  0  0  0
   -0.5600  -47.2600    5.0600 H   0  0  0  0  0  0  0  0  0  0  0  0
    0.6500  -46.4800    6.6000 C   0  0  0  0  0  0  0  0  0  0  0  0
    0.5300  -45.4900    6.1500 H   0  0  0  0  0  0  0  0  0  0  0  0
    1.6900  -46.6000    6.9200 H   0  0  0  0  0  0  0  0  0  0  0  0
   -0.2000  -46.5200    7.8200 C   0  0  0  0  0  0  0  0  0  0  0  0
    0.1100  -45.7300    8.5100 H   0  0  0  0  0  0  0  0  0  0  0  0
   -0.0800  -47.4900    8.3100 H   0  0  0  0  0  0  0  0  0  0  0  0
   -1.5300  -46.3400    7.5000 O   0  0  0  0  0  0  0  0  0  0  0  0
   -2.5500  -46.4800    8.4100 C   0  0  0  0  0  0  0  0  0  0  0  0
   -3.7600  -45.8600    8.2100 C   0  0  0  0  0  0  0  0  0  0  0  0
   -4.7700  -46.0300    9.1500 C   0  0  0  0  0  0  0  0  0  0  0  0
   -4.5700  -46.8300   10.2800 C   0  0  0  0  0  0  0  0  0  0  0  0
   -5.3600  -46.9500   11.0100 H   0  0  0  0  0  0  0  0  0  0  0  0
   -3.3500  -47.4500   10.4700 C   0  0  0  0  0  0  0  0  0  0  0  0
   -3.1800  -48.0700   11.3400 H   0  0  0  0  0  0  0  0  0  0  0  0
   -2.3400  -47.2800    9.5200 C   0  0  0  0  0  0  0  0  0  0  0  0
   -1.3800  -47.7700    9.6600 H   0  0  0  0  0  0  0  0  0  0  0  0
   -5.8800  -45.3200    8.7500 N   0  0  0  0  0  0  0  0  0  0  0  0
   -6.7600  -45.2600    9.2300 H   0  0  0  0  0  0  0  0  0  0  0  0
   -5.5500  -44.6800    7.5200 C   0  0  0  0  0  0  0  0  0  0  0  0
   -6.2100  -44.0400    6.9400 H   0  0  0  0  0  0  0  0  0  0  0  0
   -4.2200  -45.0200    7.1900 C   0  0  0  0  0  0  0  0  0  0  0  0
   -3.6600  -44.7000    6.3200 H   0  0  0  0  0  0  0  0  0  0  0  0
 18 19  1  0  0  0  0
 18 20  1  0  0  0  0
 14 15  1  0  0  0  0
 12 13  1  0  0  0  0
 17 18  1  0  0  0  0
 18 21  1  0  0  0  0
 12 14  2  0  0  0  0
 14 16  1  0  0  0  0
 10 12  1  0  0  0  0
 16 17  1  0  0  0  0
  4 17  2  0  0  0  0
  7 16  2  0  0  0  0
 21 22  1  0  0  0  0
 10 11  1  0  0  0  0
  8 10  2  0  0  0  0
 41 42  1  0  0  0  0
  2  4  1  0  0  0  0
  4  5  1  0  0  0  0
  1  2  1  0  0  0  0
  7  8  1  0  0  0  0
  5  7  1  0  0  0  0
  2  3  2  0  0  0  0
  8  9  1  0  0  0  0
 21 23  1  0  0  0  0
 21 24  1  0  0  0  0
  5  6  1  0  0  0  0
 39 40  1  0  0  0  0
 39 41  2  0  0  0  0
 29 41  1  0  0  0  0
 24 27  1  0  0  0  0
 27 28  1  0  0  0  0
 37 39  1  0  0  0  0
 24 26  1  0  0  0  0
 24 25  1  0  0  0  0
 28 29  2  0  0  0  0
 29 30  1  0  0  0  0
 28 35  1  0  0  0  0
 30 37  1  0  0  0  0
 37 38  1  0  0  0  0
 30 31  2  0  0  0  0
 35 36  1  0  0  0  0
 33 35  2  0  0  0  0
 31 33  1  0  0  0  0
 31 32  1  0  0  0  0
 33 34  1  0  0  0  0
M  CHG  1   1  -1
M  END
$$$$
