lig_18639-1
     RDKit          3D

 48 49  0  0  0  0  0  0  0  0999 V2000
   24.2760   10.8580   30.5310 C   0  0  0  0  0  0  0  0  0  0  0  0
   22.8720   11.1950   30.0240 C   0  0  0  0  0  0  0  0  0  0  0  0
   21.9940   11.3730   31.1350 O   0  0  0  0  0  0  0  0  0  0  0  0
   21.3000   10.2940   31.6580 C   0  0  0  0  0  0  0  0  0  0  0  0
   21.6710    9.0500   31.2480 N   0  0  0  0  0  0  0  0  0  0  0  0
   20.9500    8.0000   31.6670 C   0  0  0  0  0  0  0  0  0  0  0  0
   19.8660    8.1180   32.5260 C   0  0  0  0  0  0  0  0  0  0  0  0
   19.4930    9.3840   32.9420 C   0  0  0  0  0  0  0  0  0  0  0  0
   18.3660    9.4440   33.7520 N   0  0  0  0  0  0  0  0  0  0  0  0
   20.2180   10.5090   32.5170 C   0  0  0  0  0  0  0  0  0  0  0  0
   19.8680   11.8730   32.8960 C   0  0  0  0  0  0  0  0  0  0  0  0
   19.5990   12.9600   33.1900 N   0  0  0  0  0  0  0  0  0  0  0  0
   21.4270    6.8290   31.1140 N   0  0  0  0  0  0  0  0  0  0  0  0
   20.8580    5.6230   31.0220 C   0  0  0  0  0  0  0  0  0  0  0  0
   19.7390    5.3450   31.4470 O   0  0  0  0  0  0  0  0  0  0  0  0
   21.6500    4.5670   30.2610 C   0  0  0  0  0  0  0  0  0  0  0  0
   23.0150    4.2720   30.8750 C   0  0  0  0  0  0  0  0  0  0  0  0
   24.1180    5.0810   30.5810 C   0  0  0  0  0  0  0  0  0  0  0  0
   23.9100    6.1670   29.7480 O   0  0  0  0  0  0  0  0  0  0  0  0
   24.9550    7.1170   29.5480 C   0  0  0  0  0  0  0  0  0  0  0  0
   25.3570    4.7550   31.1460 C   0  0  0  0  0  0  0  0  0  0  0  0
   25.5080    3.6740   32.0310 C   0  0  0  0  0  0  0  0  0  0  0  0
   26.8470    3.4090   32.6230 N   0  0  0  0  0  0  0  0  0  0  0  0
   26.9380    2.7390   33.6470 O   0  0  0  0  0  0  0  0  0  0  0  0
   27.8300    3.9020   32.0770 O   0  0  0  0  0  0  0  0  0  0  0  0
   24.3860    2.8730   32.3280 C   0  0  0  0  0  0  0  0  0  0  0  0
   23.1530    3.1840   31.7380 C   0  0  0  0  0  0  0  0  0  0  0  0
   24.5280    1.8160   33.2070 O   0  0  0  0  0  0  0  0  0  0  0  0
   23.6290    0.7110   33.1400 C   0  0  0  0  0  0  0  0  0  0  0  0
   24.9810   10.7710   29.7050 H   0  0  0  0  0  0  0  0  0  0  0  0
   24.6270   11.6410   31.2030 H   0  0  0  0  0  0  0  0  0  0  0  0
   24.2800    9.9170   31.0790 H   0  0  0  0  0  0  0  0  0  0  0  0
   22.9070   12.1390   29.4790 H   0  0  0  0  0  0  0  0  0  0  0  0
   22.5080   10.4570   29.3050 H   0  0  0  0  0  0  0  0  0  0  0  0
   19.3080    7.2560   32.8490 H   0  0  0  0  0  0  0  0  0  0  0  0
   17.8990    8.5880   34.0370 H   0  0  0  0  0  0  0  0  0  0  0  0
   17.9570   10.3440   33.9930 H   0  0  0  0  0  0  0  0  0  0  0  0
   22.3300    6.9540   30.6850 H   0  0  0  0  0  0  0  0  0  0  0  0
   21.0730    3.6500   30.1770 H   0  0  0  0  0  0  0  0  0  0  0  0
   21.7740    4.9480   29.2520 H   0  0  0  0  0  0  0  0  0  0  0  0
   25.2820    7.5650   30.4870 H   0  0  0  0  0  0  0  0  0  0  0  0
   25.8130    6.6720   29.0420 H   0  0  0  0  0  0  0  0  0  0  0  0
   24.5870    7.9250   28.9150 H   0  0  0  0  0  0  0  0  0  0  0  0
   26.2200    5.3580   30.9140 H   0  0  0  0  0  0  0  0  0  0  0  0
   22.2860    2.5790   31.9490 H   0  0  0  0  0  0  0  0  0  0  0  0
   23.9630   -0.0600   33.8340 H   0  0  0  0  0  0  0  0  0  0  0  0
   22.6110    0.9730   33.4250 H   0  0  0  0  0  0  0  0  0  0  0  0
   23.6160    0.2650   32.1470 H   0  0  0  0  0  0  0  0  0  0  0  0
  1  2  1  0
  1 30  1  0
  1 31  1  0
  1 32  1  0
  2  3  1  0
  2 33  1  0
  2 34  1  0
  3  4  1  0
  4 10  2  0
  4  5  1  0
  5  6  2  0
  6  7  1  0
  6 13  1  0
  7  8  2  0
  7 35  1  0
  8  9  1  0
  8 10  1  0
  9 36  1  0
  9 37  1  0
 10 11  1  0
 11 12  3  0
 13 14  1  0
 13 38  1  0
 14 15  2  0
 14 16  1  0
 16 17  1  0
 16 39  1  0
 16 40  1  0
 17 27  1  0
 17 18  2  0
 18 19  1  0
 18 21  1  0
 19 20  1  0
 20 41  1  0
 20 42  1  0
 20 43  1  0
 21 22  2  0
 21 44  1  0
 22 23  1  0
 22 26  1  0
 23 24  1  0
 23 25  2  0
 26 27  2  0
 26 28  1  0
 27 45  1  0
 28 29  1  0
 29 46  1  0
 29 47  1  0
 29 48  1  0
M  CHG  2  23   1  24  -1
M  END
$$$$
