@<TRIPOS>MOLECULE
tmp_images/m0.pdb
 28 28 0 0 0
SMALL
GASTEIGER

@<TRIPOS>ATOM
      1  O1        -1.1300   -2.1500   -0.7070 O.3     1  LIG1        0.0000
      2  C1         0.2210   -2.4050   -0.7090 C.3     1  LIG1        0.0000
      3  C2         1.0060   -1.1940   -0.3630 C.ar    1  LIG1        0.0000
      4  C3         0.3930    0.0090   -0.0810 C.ar    1  LIG1        0.0000
      5  C4         1.1370    1.1410    0.2440 C.ar    1  LIG1        0.0000
      6  C5         2.5230    1.0800    0.2920 C.ar    1  LIG1        0.0000
      7  C6         3.1330   -0.1250    0.0090 C.ar    1  LIG1        0.0000
      8  C7         2.3810   -1.2410   -0.3120 C.ar    1  LIG1        0.0000
      9  H1        -1.4910   -1.8410    0.1460 H       1  LIG1        0.0000
     10  H2         0.4100   -3.2400    0.0020 H       1  LIG1        0.0000
     11  H3         0.4730   -2.7760   -1.7400 H       1  LIG1        0.0000
     12  H4        -0.6830    0.0420   -0.1210 H       1  LIG1        0.0000
     13  H5         0.6580    2.0730    0.4620 H       1  LIG1        0.0000
     14  H6         3.0770    1.9750    0.5480 H       1  LIG1        0.0000
     15  H7         4.2150   -0.1950    0.0410 H       1  LIG1        0.0000
     16  H8         2.8390   -2.2070   -0.5400 H       1  LIG1        0.0000
     17  C1        -1.6760   -1.0810    0.6700 Du      1  LIG1        0.0000
     18  C3        -1.5700   -0.0530   -1.5520 Du      1  LIG1        0.0000
     19  C4        -1.6030    1.3770    0.4200 Du      1  LIG1        0.0000
     20  H1        -1.3960   -1.0280    1.7500 Du      1  LIG1        0.0000
     21  H2        -1.3550   -2.0280    0.1920 Du      1  LIG1        0.0000
     22  H3        -2.7870   -1.0800    0.5950 Du      1  LIG1        0.0000
     23  H4        -1.0810   -0.8610   -2.0670 Du      1  LIG1        0.0000
     24  H5        -1.3790    0.9440   -2.0270 Du      1  LIG1        0.0000
     25  H6        -2.6810   -0.1810   -1.4940 Du      1  LIG1        0.0000
     26  H7        -2.7260    1.3240    0.2620 Du      1  LIG1        0.0000
     27  H8        -1.2440    2.1820   -0.2130 Du      1  LIG1        0.0000
     28  H9        -1.4020    1.5320    1.4750 Du      1  LIG1        0.0000
@<TRIPOS>BOND
     1     1     2    1
     2     1     9    1
     3     2     3    1
     4     2    10    1
     5     2    11    1
     6     3     4   ar
     7     3     8   ar
     8     4     5   ar
     9     4    12    1
    10     5     6   ar
    11     5    13    1
    12     6     7   ar
    13     6    14    1
    14     7     8   ar
    15     7    15    1
    16     8    16    1
    17    12    17    1
    18    12    18    1
    19    12    19    1
    20    17    20    1
    21    17    21    1
    22    17    22    1
    23    18    23    1
    24    18    24    1
    25    18    25    1
    26    19    26    1
    27    19    27    1
    28    19    28    1
