lig_CAT-13c
     RDKit          3D

 45 47  0  0  0  0  0  0  0  0999 V2000
   13.4100   -2.5300   -0.8600 C   0  0  0  0  0  0  0  0  0  0  0  0
   15.3600   -2.5400    0.5300 N   0  0  0  0  0  0  0  0  0  0  0  0
   12.6400   -2.4100   -1.8000 O   0  0  0  0  0  0  0  0  0  0  0  0
   14.9600   -2.7100   -0.9300 C   0  0  1  0  0  0  0  0  0  0  0  0
   15.3500   -3.9500   -1.5200 C   0  0  0  0  0  0  0  0  0  0  0  0
   15.5900   -4.9100   -0.5000 C   0  0  0  0  0  0  0  0  0  0  0  0
   16.3900   -4.5600    0.1500 H   0  0  0  0  0  0  0  0  0  0  0  0
   15.8900   -5.8600   -0.9600 H   0  0  0  0  0  0  0  0  0  0  0  0
   14.6900   -5.0600    0.0800 H   0  0  0  0  0  0  0  0  0  0  0  0
   13.0500   -2.4800    0.4700 N   0  0  0  0  0  0  0  0  0  0  0  0
   16.2500   -3.8000   -2.1100 H   0  0  0  0  0  0  0  0  0  0  0  0
   14.2600   -2.4900    1.2600 C   0  0  0  0  0  0  0  0  0  0  0  0
   14.2500   -2.3600    2.6000 N   0  0  0  0  0  0  0  0  0  0  0  0
   14.3000   -4.4100   -2.3800 C   0  0  0  0  0  0  0  0  0  0  0  0
   11.6600   -2.3300    0.9300 C   0  0  0  0  0  0  0  0  0  0  0  0
   15.7300    4.0400   -0.2700 C   0  0  0  0  0  0  0  0  0  0  0  0
   14.5900   -5.3600   -2.8300 H   0  0  0  0  0  0  0  0  0  0  0  0
   16.3800    4.7100    1.2200 Cl  0  0  0  0  0  0  0  0  0  0  0  0
   15.6100   -1.5800   -1.7500 C   0  0  0  0  0  0  0  0  0  0  0  0
   14.1100   -3.6800   -3.1600 H   0  0  0  0  0  0  0  0  0  0  0  0
   16.4600   -1.8600   -2.8100 C   0  0  0  0  0  0  0  0  0  0  0  0
   16.9900   -0.8400   -3.5800 C   0  0  0  0  0  0  0  0  0  0  0  0
   13.3900   -4.5600   -1.7900 H   0  0  0  0  0  0  0  0  0  0  0  0
   16.6900    0.4800   -3.2800 C   0  0  0  0  0  0  0  0  0  0  0  0
   15.8600    0.7900   -2.2000 C   0  0  0  0  0  0  0  0  0  0  0  0
   15.3100   -0.2500   -1.4400 C   0  0  0  0  0  0  0  0  0  0  0  0
   14.8900    4.7400   -1.0300 C   0  0  0  0  0  0  0  0  0  0  0  0
   16.0600    2.8100   -0.6800 C   0  0  0  0  0  0  0  0  0  0  0  0
   15.5700    2.2200   -1.8400 C   0  0  0  0  0  0  0  0  0  0  0  0
   14.7200    2.9900   -2.6200 C   0  0  0  0  0  0  0  0  0  0  0  0
   14.3700    4.2700   -2.2200 C   0  0  0  0  0  0  0  0  0  0  0  0
   13.7000    4.8800   -2.8200 H   0  0  0  0  0  0  0  0  0  0  0  0
   14.5900    5.7400   -0.7000 H   0  0  0  0  0  0  0  0  0  0  0  0
   14.3300    2.6000   -3.5600 H   0  0  0  0  0  0  0  0  0  0  0  0
   16.7500    2.2300   -0.0700 H   0  0  0  0  0  0  0  0  0  0  0  0
   14.6500   -0.0200   -0.6100 H   0  0  0  0  0  0  0  0  0  0  0  0
   17.1000    1.2800   -3.8900 H   0  0  0  0  0  0  0  0  0  0  0  0
   16.7200   -2.9000   -3.0300 H   0  0  0  0  0  0  0  0  0  0  0  0
   17.6400   -1.0700   -4.4200 H   0  0  0  0  0  0  0  0  0  0  0  0
   13.3700   -2.2900    3.0900 H   0  0  0  0  0  0  0  0  0  0  0  0
   15.1200   -2.3300    3.1100 H   0  0  0  0  0  0  0  0  0  0  0  0
   11.3300   -1.3100    0.7400 H   0  0  0  0  0  0  0  0  0  0  0  0
   11.6100   -2.5500    1.9900 H   0  0  0  0  0  0  0  0  0  0  0  0
   11.0300   -3.0300    0.3800 H   0  0  0  0  0  0  0  0  0  0  0  0
   16.2644   -2.4672    0.9738 H   0  0  0  0  0  0  0  0  0  0  0  0
  1  3  2  0
  1  4  1  0
  1 10  1  0
  2  4  1  0
  2 12  2  0
  2 45  1  0
  4 19  1  0
  4  5  1  6
  5 14  1  0
  5 11  1  0
  5  6  1  0
  6  8  1  0
  6  9  1  0
  6  7  1  0
 10 15  1  0
 10 12  1  0
 12 13  1  0
 13 40  1  0
 13 41  1  0
 14 20  1  0
 14 17  1  0
 14 23  1  0
 15 44  1  0
 15 42  1  0
 15 43  1  0
 16 27  2  0
 16 28  1  0
 16 18  1  0
 19 21  2  0
 19 26  1  0
 21 22  1  0
 21 38  1  0
 22 39  1  0
 22 24  2  0
 24 37  1  0
 24 25  1  0
 25 29  1  0
 25 26  2  0
 26 36  1  0
 27 31  1  0
 27 33  1  0
 28 29  2  0
 28 35  1  0
 29 30  1  0
 30 34  1  0
 30 31  2  0
 31 32  1  0
M  CHG  1   2   1
M  END
>  <s_m_entry_id>  (1) 
15

>  <s_m_entry_name>  (1) 
lig_CAT-13c.1

>  <s_m_Source_Path>  (1) 
C:\Users\dhahn3\Downloads\bace

>  <s_m_Source_File>  (1) 
lig_CAT-13c.sdf

>  <i_m_Source_File_Index>  (1) 
1

$$$$
