# Molecule written by the XED library from Cresset
@<TRIPOS>MOLECULE
CatS_178
    94     98      1
SMALL
USER_CHARGES
@<TRIPOS>ATOM
      1  C2          3.4301   16.9049   -3.5878 O.3       1 MOL1       -0.4361
      2  O1          2.2310   16.6399   -4.3386 C.3       1 MOL1        0.0554
      3  C3          1.3870   17.6879   -4.5418 C.2       1 MOL1        0.2978
      4  O2          1.6509   18.7711   -4.0261 O.2       1 MOL1       -0.4169
      5  N1          0.2859   17.5009   -5.3040 N.am      1 MOL1       -0.3840
      6  C4         -0.1252   16.1701   -5.7828 C.3       1 MOL1        0.0940
      7  C5         -1.1912   15.5860   -4.8381 C.3       1 MOL1       -0.0600
      8  C6         -1.6667   14.2210   -5.3740 C.3       1 MOL1       -0.0594
      9  N2         -2.2340   14.3441   -6.7310 N.4       1 MOL1       -0.2281
     10  C7         -1.2229   14.8909   -7.6588 C.3       1 MOL1       -0.0594
     11  C8         -0.7218   16.2750   -7.1990 C.3       1 MOL1       -0.0600
     12  C9         -2.7050   13.0261   -7.1966 C.3       1 MOL1       -0.0328
     13  C10        -3.4130   13.0569   -8.5710 C.3       1 MOL1        0.0191
     14  C11        -3.3400   11.6550   -9.2000 C.3       1 MOL1        0.0979
     15  N3         -4.3391   10.6960   -8.7089 N.pl3     1 MOL1       -0.0670
     16  C12        -5.5312   10.3251   -9.2409 C.ar      1 MOL1        0.0572
     17  C13        -6.2051    9.4822   -8.4579 C.ar      1 MOL1       -0.0684
     18  C14        -5.3400    9.2810   -7.3580 C.ar      1 MOL1        0.0392
     19  N4         -4.2648   10.0228   -7.5359 N.2       1 MOL1       -0.2943
     20  C15        -5.5281    8.4130   -6.2060 C.ar      1 MOL1       -0.0066
     21  C16        -4.4679    7.7387   -5.6281 C.ar      1 MOL1       -0.0846
     22  C17        -4.6600    6.9419   -4.5277 C.ar      1 MOL1       -0.0687
     23  C18        -5.9101    6.7699   -3.9697 C.ar      1 MOL1        0.0171
     24  C19        -6.9759    7.4399   -4.5579 C.ar      1 MOL1        0.0480
     25  C20        -6.7842    8.2539   -5.6509 C.ar      1 MOL1       -0.0655
     26  S1         -8.6622    7.2889   -3.9531 S.3       1 MOL1       -0.1783
     27  C21        -9.2132    8.9471   -3.4730 C.3       1 MOL1       -0.0087
     28  C22        -8.0201    9.8151   -3.0207 C.3       1 MOL1       -0.0441
     29  N5         -8.4070   10.8679   -2.0651 N.4       1 MOL1       -0.2282
     30  C23        -9.7688   11.3442   -2.3741 C.3       1 MOL1       -0.0507
     31  C24       -10.2312   12.4110   -1.3618 C.3       1 MOL1       -0.0181
     32  C25        -9.2443   13.5922   -1.3599 C.3       1 MOL1        0.1870
     33  C26        -7.8198   13.0740   -1.0852 C.3       1 MOL1       -0.0181
     34  C27        -7.4530   11.9951   -2.1232 C.3       1 MOL1       -0.0507
     35  C28        -5.9452    5.8568   -2.7420 C.3       1 MOL1        0.4149
     36  F1         -4.9472    4.8881   -2.7811 F         1 MOL1       -0.1514
     37  F2         -7.1420    5.1659   -2.5929 F         1 MOL1       -0.1514
     38  F3         -5.7381    6.5909   -1.5781 F         1 MOL1       -0.1514
     39  C29        -7.5842    8.9489   -8.8241 C.3       1 MOL1        0.1169
     40  N6         -8.2562    9.7459   -9.8751 N.3       1 MOL1       -0.4606
     41  C30        -7.3181    9.9450  -11.0010 C.3       1 MOL1        0.0844
     42  C31        -6.0938   10.7928  -10.5729 C.3       1 MOL1       -0.0158
     43  S2         -9.7912    9.3101  -10.1698 S.3       1 MOL1        0.4316
     44  O3         -9.8658    7.9420   -9.7660 O.2       1 MOL1       -0.3139
     45  O4        -10.0689    9.5798  -11.5450 O.2       1 MOL1       -0.3139
     46  C32       -10.9189   10.2888   -9.1311 C.3       1 MOL1        0.0421
     47  H33        -9.5604   14.3842   -0.5171 F         1 MOL1       -0.1808
     48  H34        -9.2641   14.1291   -2.4331 F         1 MOL1       -0.1808
     49  H18        -4.5662   13.3630   -8.4240 O.3       1 MOL1       -0.4408
     50  H19        -2.8849   13.8322   -9.3200 H         1 MOL1        0.0680
     51  H6         -0.2093   18.2000   -5.5070 H         1 MOL1        0.2040
     52  H7          0.8139   15.4249   -5.8330 H         1 MOL1        0.0615
     53  H8         -0.7248   15.4542   -3.7393 H         1 MOL1        0.0483
     54  H9         -2.1312   16.3300   -4.7861 H         1 MOL1        0.0483
     55  H10        -2.5059   13.8240   -4.6131 H         1 MOL1        0.0529
     56  H11        -0.7431   13.4540   -5.3882 H         1 MOL1        0.0529
     57  H12        -1.6999   15.0319   -8.7501 H         1 MOL1        0.0529
     58  H13        -0.2799   14.1498   -7.7231 H         1 MOL1        0.0529
     59  H14         0.1170   16.6709   -7.9590 H         1 MOL1        0.0483
     60  H15        -1.6448   17.0421   -7.1909 H         1 MOL1        0.0483
     61  H16        -3.5303   12.6210   -6.4258 H         1 MOL1        0.0549
     62  H17        -1.8130   12.2239   -7.2248 H         1 MOL1        0.0549
     63  H20        -3.4751   11.7689  -10.3867 H         1 MOL1        0.0624
     64  H21        -2.2549   11.1929   -8.9838 H         1 MOL1        0.0624
     65  H22        -3.5491    7.8379   -6.0090 H         1 MOL1        0.0910
     66  H23        -3.8721    6.4760   -4.1252 H         1 MOL1        0.0908
     67  H24        -7.5650    8.7321   -6.0519 H         1 MOL1        0.0929
     68  H25        -9.7309    9.4499   -4.4321 H         1 MOL1        0.0553
     69  H26       -10.0247    8.8691   -2.5917 H         1 MOL1        0.0553
     70  H27        -7.5952   10.3440   -4.0119 H         1 MOL1        0.0547
     71  H28        -7.1410    9.1329   -2.5668 H         1 MOL1        0.0547
     72  H29       -10.5490   10.4352   -2.3161 H         1 MOL1        0.0529
     73  H30        -9.7887   11.8010   -3.4839 H         1 MOL1        0.0529
     74  H31       -10.2651   11.9171   -0.2699 H         1 MOL1        0.0526
     75  H32       -11.3259   12.8010   -1.6601 H         1 MOL1        0.0526
     76  H35        -7.0419   13.9840   -1.1569 H         1 MOL1        0.0526
     77  H36        -7.7743   12.5987    0.0151 H         1 MOL1        0.0526
     78  H37        -7.4589   12.4810   -3.2212 H         1 MOL1        0.0529
     79  H38        -6.3400   11.6220   -1.8749 H         1 MOL1        0.0529
     80  H39        -7.4862    7.8079   -9.1821 H         1 MOL1        0.0628
     81  H40        -8.2801    8.9949   -7.8459 H         1 MOL1        0.0628
     82  H41        -6.9428    8.8778  -11.4010 H         1 MOL1        0.0601
     83  H42        -7.8700   10.5229  -11.8951 H         1 MOL1        0.0601
     84  H43        -6.4270   11.9410  -10.4692 H         1 MOL1        0.0516
     85  H44        -5.2561   10.6981  -11.4262 H         1 MOL1        0.0516
     86  H45       -11.0141   11.4130   -9.5418 H         1 MOL1        0.0588
     87  H46       -12.0139    9.7991   -9.1409 H         1 MOL1        0.0588
     88  H47       -10.5202   10.3159   -7.9990 H         1 MOL1        0.0588
     89  H           4.1979   16.7130   -4.1317 H         1 MOL1        0.3291
     90  H           2.5287   16.2682   -5.3084 H         1 MOL1        0.0698
     91  H           1.6798   15.8741   -3.8136 H         1 MOL1        0.0698
     92  H          -2.9463   14.9138   -6.7057 H         1 MOL1        0.1922
     93  H          -8.4053   10.5162   -1.2234 H         1 MOL1        0.1922
     94  H          -5.0516   13.3942   -9.3046 H         1 MOL1        0.3291
@<TRIPOS>BOND
     1      1      2 1 
     2      2      3 1 
     3      3      4 2 
     4      3      5 am
     5      5      6 1 
     6      6      7 1 
     7      6     11 1 
     8      7      8 1 
     9      8      9 1 
    10      9     10 1 
    11      9     12 1 
    12     10     11 1 
    13     12     13 1 
    14     13     14 1 
    15     13     49 1 
    16     14     15 1 
    17     15     16 ar
    18     15     19 ar
    19     16     17 ar
    20     16     42 1 
    21     17     18 ar
    22     17     39 1 
    23     18     19 ar
    24     18     20 1 
    25     20     21 ar
    26     20     25 ar
    27     21     22 ar
    28     22     23 ar
    29     23     24 ar
    30     23     35 1 
    31     24     25 ar
    32     24     26 1 
    33     26     27 1 
    34     27     28 1 
    35     28     29 1 
    36     29     30 1 
    37     29     34 1 
    38     30     31 1 
    39     31     32 1 
    40     32     33 1 
    41     32     47 1 
    42     32     48 1 
    43     33     34 1 
    44     35     36 1 
    45     35     37 1 
    46     35     38 1 
    47     39     40 1 
    48     40     41 1 
    49     40     43 1 
    50     41     42 1 
    51     43     44 2 
    52     43     45 2 
    53     43     46 1 
    54      5     51 1 
    55      6     52 1 
    56      7     53 1 
    57      7     54 1 
    58      8     55 1 
    59      8     56 1 
    60     10     57 1 
    61     10     58 1 
    62     11     59 1 
    63     11     60 1 
    64     12     61 1 
    65     12     62 1 
    66     13     50 1 
    67     14     63 1 
    68     14     64 1 
    69     21     65 1 
    70     22     66 1 
    71     25     67 1 
    72     27     68 1 
    73     27     69 1 
    74     28     70 1 
    75     28     71 1 
    76     30     72 1 
    77     30     73 1 
    78     31     74 1 
    79     31     75 1 
    80     33     76 1 
    81     33     77 1 
    82     34     78 1 
    83     34     79 1 
    84     39     80 1 
    85     39     81 1 
    86     41     82 1 
    87     41     83 1 
    88     42     84 1 
    89     42     85 1 
    90     46     86 1 
    91     46     87 1 
    92     46     88 1 
    93     49     94 1 
    94     89      1 1 
    95     90      2 1 
    96     91      2 1 
    97     92      9 1 
    98     93     29 1 
@<TRIPOS>SUBSTRUCTURE
     1 MOL1         1 MOLECULE          1 A
