# Molecule written by the XED library from Cresset
@<TRIPOS>MOLECULE
CatS_162
    95    100      1
SMALL
USER_CHARGES
@<TRIPOS>ATOM
      1  C1         -4.4863    7.5392   -5.7132 C.ar      1 MOL1       -0.0846
      2  C2         -4.6602    6.7109   -4.6310 C.ar      1 MOL1       -0.0687
      3  C3         -5.8699    6.6379   -3.9730 C.ar      1 MOL1        0.0171
      4  C4         -6.9110    7.4268   -4.4419 C.ar      1 MOL1        0.0480
      5  C5         -6.7442    8.2479   -5.5343 C.ar      1 MOL1       -0.0655
      6  C6         -5.5262    8.3209   -6.1830 C.ar      1 MOL1       -0.0066
      7  C7         -5.3729    9.2153   -7.3198 C.ar      1 MOL1        0.0391
      8  C8         -6.3013    9.5348   -8.3338 C.ar      1 MOL1       -0.0691
      9  C9         -5.6320   10.3810   -9.1233 C.ar      1 MOL1        0.0571
     10  N1         -4.3650   10.6260   -8.6809 N.pl3     1 MOL1       -0.0670
     11  N2         -4.2578    9.8690   -7.5652 N.2       1 MOL1       -0.2943
     12  C10        -3.2820   11.5019   -9.1679 C.3       1 MOL1        0.0979
     13  C11        -3.0351   12.9250   -8.6220 C.3       1 MOL1        0.0191
     14  C12        -2.4582   12.8950   -7.1940 C.3       1 MOL1       -0.0328
     15  N3         -2.1130   14.2737   -6.7860 N.4       1 MOL1       -0.2283
     16  C13        -1.2460   14.9391   -7.7821 C.3       1 MOL1       -0.0630
     17  C14        -0.9279   16.3791   -7.3868 C.3       1 MOL1       -0.0834
     18  C15        -0.3050   16.4251   -5.9978 C.3       1 MOL1       -0.0872
     19  C16        -1.2030   15.7170   -4.9989 C.3       1 MOL1       -0.0834
     20  C17        -1.4792   14.2951   -5.4641 C.3       1 MOL1       -0.0630
     21  O1         -4.2610   13.6690   -8.5964 O.3       1 MOL1       -0.4408
     22  C18        -6.2651   10.9469  -10.3862 C.3       1 MOL1       -0.0166
     23  C19        -7.7959   10.7440  -10.4582 C.3       1 MOL1        0.0808
     24  N4         -8.2500    9.4452   -9.9049 N.am      1 MOL1       -0.4012
     25  C20        -7.7319    9.0717   -8.5741 C.3       1 MOL1        0.1152
     26  C21        -9.1622    8.6351  -10.4912 C.2       1 MOL1        0.4021
     27  O2         -9.1649    7.4181  -10.3570 O.2       1 MOL1       -0.4572
     28  S1         -8.5191    7.4481   -3.6400 S.3       1 MOL1       -0.1783
     29  C26        -9.0882    9.1672   -3.5891 C.3       1 MOL1       -0.0087
     30  C27        -7.9859   10.0770   -3.0061 C.3       1 MOL1       -0.0441
     31  N5         -8.4741   11.0242   -1.9848 N.4       1 MOL1       -0.2284
     32  C28        -9.7343   11.6311   -2.4138 C.3       1 MOL1       -0.0566
     33  C29       -10.2919   12.5450   -1.3273 C.3       1 MOL1       -0.0467
     34  C30        -9.3059   13.6379   -0.9381 C.3       1 MOL1        0.0498
     35  C31        -7.9539   13.0170   -0.6358 C.3       1 MOL1       -0.0467
     36  C32        -7.4939   12.0830   -1.7471 C.3       1 MOL1       -0.0566
     37  C33        -5.9540    5.6899   -2.7790 C.3       1 MOL1        0.4149
     38  F2         -5.8197    6.3781   -1.5790 F         1 MOL1       -0.1514
     39  F3         -7.1848    5.0439   -2.7508 F         1 MOL1       -0.1514
     40  F4         -4.9792    4.6960   -2.7841 F         1 MOL1       -0.1514
     41  H41        -9.7171   14.1890    0.0450 F         1 MOL1       -0.2169
     42  H          -9.8175    9.0194  -11.1326 N.am      1 MOL1       -0.4003
     43  FI        -10.9183    8.1565  -11.1953 C.3       1 MOL1        0.0884
     44  FI        -11.8410    8.6974  -12.0984 C.3       1 MOL1       -0.0023
     45  FI        -11.2154    8.8004  -13.3467 O.3       1 MOL1       -0.2495
     46  C         -10.1039    9.6396  -13.2055 C.3       1 MOL1       -0.0023
     47  C          -9.2444    9.0644  -12.2620 C.3       1 MOL1        0.0884
     48  H          -9.1951   14.5601   -1.9739 H         1 MOL1        0.0735
     49  H1         -2.2381   13.4760   -9.3291 H         1 MOL1        0.0680
     50  H2         -3.5970    7.5732   -6.1660 H         1 MOL1        0.0910
     51  H3         -3.8921    6.1560   -4.3160 H         1 MOL1        0.0908
     52  H4         -7.5099    8.8060   -5.8541 H         1 MOL1        0.0929
     53  H5         -2.2557   10.8949   -9.0271 H         1 MOL1        0.0624
     54  H6         -3.4738   11.6019  -10.3480 H         1 MOL1        0.0624
     55  H7         -3.2398   12.3630   -6.4550 H         1 MOL1        0.0549
     56  H8         -1.4850   12.1940   -7.2511 H         1 MOL1        0.0549
     57  H9         -0.2439   14.3011   -7.9561 H         1 MOL1        0.0529
     58  H10        -1.8488   14.9609   -8.8191 H         1 MOL1        0.0529
     59  H11        -0.1579   16.8700   -8.1650 H         1 MOL1        0.0467
     60  H12        -1.9400   17.0230   -7.3741 H         1 MOL1        0.0467
     61  H13        -0.1761   17.5702   -5.6630 H         1 MOL1        0.0460
     62  H14         0.7699   15.8922   -6.0170 H         1 MOL1        0.0460
     63  H15        -2.2421   16.3121   -4.9177 H         1 MOL1        0.0467
     64  H16        -0.6710   15.7251   -3.9251 H         1 MOL1        0.0467
     65  H17        -0.4579   13.6639   -5.4441 H         1 MOL1        0.0529
     66  H18        -2.2311   13.8080   -4.6658 H         1 MOL1        0.0529
     67  H19        -4.1120   14.6070   -8.2650 H         1 MOL1        0.3291
     68  H20        -6.0529   12.1221  -10.4687 H         1 MOL1        0.0516
     69  H21        -5.7720   10.3860  -11.3252 H         1 MOL1        0.0516
     70  H22        -8.1116   10.9422  -11.5961 H         1 MOL1        0.0595
     71  H23        -8.3141   11.5919   -9.7850 H         1 MOL1        0.0595
     72  H24        -8.4471    9.5701   -7.7481 H         1 MOL1        0.0622
     73  H25        -7.7661    7.8781   -8.4601 H         1 MOL1        0.0622
     74  H33       -10.0800    9.2619   -2.9210 H         1 MOL1        0.0553
     75  H34        -9.3421    9.4981   -4.7151 H         1 MOL1        0.0553
     76  H35        -7.1079    9.4011   -2.5440 H         1 MOL1        0.0547
     77  H36        -7.5293   10.7101   -3.9191 H         1 MOL1        0.0547
     78  H37       -10.5090   10.7480   -2.6623 H         1 MOL1        0.0529
     79  H38        -9.5522   12.2629   -3.4190 H         1 MOL1        0.0529
     80  H39       -11.2781   13.0980   -1.7303 H         1 MOL1        0.0497
     81  H40       -10.5780   11.9111   -0.3479 H         1 MOL1        0.0497
     82  H42        -8.0539   12.4063    0.3932 H         1 MOL1        0.0497
     83  H43        -7.1287   13.8769   -0.4890 H         1 MOL1        0.0497
     84  H44        -7.3410   12.6999   -2.7652 H         1 MOL1        0.0529
     85  H45        -6.4352   11.6080   -1.4361 H         1 MOL1        0.0529
     86  H          -2.8877   14.7486   -6.7174 H         1 MOL1        0.1921
     87  H          -8.6152   10.5656   -1.2092 H         1 MOL1        0.1921
     88  H         -10.5939    7.2638  -11.5083 H         1 MOL1        0.0610
     89  H          -8.4178    9.6193  -12.1671 H         1 MOL1        0.0610
     90  H         -12.6274    8.0812  -12.1432 H         1 MOL1        0.0652
     91  H          -9.6570    9.7132  -14.0970 H         1 MOL1        0.0652
     92  H         -11.3124    8.0914  -10.2785 H         1 MOL1        0.0610
     93  H          -9.0169    8.1284  -12.5305 H         1 MOL1        0.0610
     94  H         -12.1128    9.5985  -11.7602 H         1 MOL1        0.0652
     95  H         -10.4286   10.5329  -12.8944 H         1 MOL1        0.0652
@<TRIPOS>BOND
     1      1      2 ar
     2      1      6 ar
     3      2      3 ar
     4      3      4 ar
     5      3     37 1 
     6      4      5 ar
     7      4     28 1 
     8      5      6 ar
     9      6      7 1 
    10      7      8 ar
    11      7     11 ar
    12      8      9 ar
    13      8     25 1 
    14      9     10 ar
    15      9     22 1 
    16     10     11 ar
    17     10     12 1 
    18     12     13 1 
    19     13     14 1 
    20     13     21 1 
    21     14     15 1 
    22     15     16 1 
    23     15     20 1 
    24     16     17 1 
    25     17     18 1 
    26     18     19 1 
    27     19     20 1 
    28     22     23 1 
    29     23     24 1 
    30     24     25 1 
    31     24     26 am
    32     26     27 2 
    33     28     29 1 
    34     29     30 1 
    35     30     31 1 
    36     31     32 1 
    37     31     36 1 
    38     32     33 1 
    39     33     34 1 
    40     34     35 1 
    41     34     41 1 
    42     35     36 1 
    43     37     38 1 
    44     37     39 1 
    45     37     40 1 
    46     42     26 am
    47     42     47 1 
    48     43     42 1 
    49     44     43 1 
    50     45     44 1 
    51     46     45 1 
    52     47     46 1 
    53      1     50 1 
    54      2     51 1 
    55      5     52 1 
    56     12     53 1 
    57     12     54 1 
    58     13     49 1 
    59     14     55 1 
    60     14     56 1 
    61     15     86 1 
    62     16     57 1 
    63     16     58 1 
    64     17     59 1 
    65     17     60 1 
    66     18     61 1 
    67     18     62 1 
    68     19     63 1 
    69     19     64 1 
    70     20     65 1 
    71     20     66 1 
    72     21     67 1 
    73     22     68 1 
    74     22     69 1 
    75     23     70 1 
    76     23     71 1 
    77     25     72 1 
    78     25     73 1 
    79     29     74 1 
    80     29     75 1 
    81     30     76 1 
    82     30     77 1 
    83     31     87 1 
    84     32     78 1 
    85     32     79 1 
    86     33     80 1 
    87     33     81 1 
    88     34     48 1 
    89     35     82 1 
    90     35     83 1 
    91     36     84 1 
    92     36     85 1 
    93     88     43 1 
    94     89     47 1 
    95     90     44 1 
    96     91     46 1 
    97     92     43 1 
    98     93     47 1 
    99     94     44 1 
   100     95     46 1 
@<TRIPOS>SUBSTRUCTURE
     1 MOL1         1 MOLECULE          1 A
