# Molecule written by the XED library from Cresset
@<TRIPOS>MOLECULE
CatS_4
    99    104      1
SMALL
USER_CHARGES
@<TRIPOS>ATOM
      1  C1        -10.9970   10.1979   -9.3461 C.3       1 MOL1        0.0421
      2  S1         -9.7851    9.2129  -10.2671 S.3       1 MOL1        0.4316
      3  O1         -9.9959    9.4190  -11.6630 O.2       1 MOL1       -0.3139
      4  O2         -9.8810    7.8621   -9.8200 O.2       1 MOL1       -0.3139
      5  N1         -8.2900    9.7320   -9.8940 N.3       1 MOL1       -0.4606
      6  C2         -7.3301    9.9360  -10.9959 C.3       1 MOL1        0.0844
      7  C3         -6.1139   10.7761  -10.5460 C.3       1 MOL1       -0.0158
      8  C4         -5.5401   10.2840   -9.2299 C.ar      1 MOL1        0.0572
      9  C5         -6.2329    9.4439   -8.4550 C.ar      1 MOL1       -0.0684
     10  C6         -5.3499    9.1798   -7.3831 C.ar      1 MOL1        0.0392
     11  N2         -4.2500    9.8759   -7.5802 N.2       1 MOL1       -0.2943
     12  N3         -4.3220   10.6069   -8.7140 N.pl3     1 MOL1       -0.0691
     13  C7         -3.3271   11.6320   -9.0840 C.3       1 MOL1        0.0794
     14  C8         -3.2839   13.0401   -8.4460 C.3       1 MOL1       -0.0608
     15  C9         -2.4381   13.0959   -7.1530 C.3       1 MOL1       -0.0600
     16  N4         -2.0979   14.4591   -6.7050 N.4       1 MOL1       -0.2306
     17  C10        -1.2270   15.1009   -7.7100 C.3       1 MOL1       -0.0596
     18  C11        -0.8160   16.5280   -7.2989 C.3       1 MOL1       -0.0597
     19  C12        -0.0801   16.4670   -5.9490 C.3       1 MOL1        0.0948
     20  C13        -1.0201   15.8259   -4.9090 C.3       1 MOL1       -0.0597
     21  C14        -1.4170   14.4150   -5.3931 C.3       1 MOL1       -0.0596
     22  N5          0.4610   17.7950   -5.6210 N.am      1 MOL1       -0.3966
     23  C15        -0.2500   18.8220   -4.8500 C.3       1 MOL1        0.0730
     24  C16         0.9060   19.7920   -4.5480 C.3       1 MOL1       -0.0610
     25  C17         1.9520   19.5631   -5.6510 C.3       1 MOL1       -0.0111
     26  C18         1.6649   18.1510   -6.0859 C.2       1 MOL1        0.2838
     27  O3          2.4181   17.4531   -6.7520 O.2       1 MOL1       -0.4204
     28  C19        -5.5050    8.3121   -6.2260 C.ar      1 MOL1       -0.0066
     29  C20        -4.4720    7.5810   -5.6691 C.ar      1 MOL1       -0.0846
     30  C21        -4.6901    6.7700   -4.5810 C.ar      1 MOL1       -0.0687
     31  C22        -5.9400    6.6590   -4.0049 C.ar      1 MOL1        0.0171
     32  C23        -6.9791    7.3929   -4.5591 C.ar      1 MOL1        0.0480
     33  C24        -6.7551    8.2031   -5.6490 C.ar      1 MOL1       -0.0655
     34  S2         -8.6440    7.3560   -3.8701 S.3       1 MOL1       -0.1783
     35  C25        -9.1980    9.0142   -3.3711 C.3       1 MOL1       -0.0087
     36  C26        -8.0230    9.8569   -2.8330 C.3       1 MOL1       -0.0441
     37  N6         -8.4121   10.9009   -1.8661 N.4       1 MOL1       -0.2286
     38  C27        -9.7979   11.3341   -2.1359 C.3       1 MOL1       -0.0617
     39  C28       -10.2620   12.4439   -1.1739 C.3       1 MOL1       -0.0643
     40  C29        -9.3081   13.6430   -1.3131 C.3       1 MOL1        0.0164
     41  C30        -7.8791   13.1760   -0.9770 C.3       1 MOL1       -0.0643
     42  C31        -7.4901   12.0550   -1.9599 C.3       1 MOL1       -0.0617
     43  C32        -9.7419   14.7920   -0.3920 C.3       1 MOL1        0.3514
     44  F1        -10.1831   14.3040    0.8331 F         1 MOL1       -0.1540
     45  F2        -10.7769   15.5170   -0.9700 F         1 MOL1       -0.1540
     46  F3         -8.6781   15.6589   -0.1641 F         1 MOL1       -0.1540
     47  C33        -6.0731    5.7410   -2.7941 C.3       1 MOL1        0.4149
     48  F4         -5.9591    6.4560   -1.6072 F         1 MOL1       -0.1514
     49  F5         -7.3169    5.1200   -2.7791 F         1 MOL1       -0.1514
     50  F6         -5.1051    4.7410   -2.7562 F         1 MOL1       -0.1514
     51  C34        -7.6290    8.9510   -8.8222 C.3       1 MOL1        0.1169
     52  H1        -10.6850   10.2440   -8.1880 H         1 MOL1        0.0588
     53  H2        -11.0681   11.3060   -9.8020 H         1 MOL1        0.0588
     54  H3        -12.0720    9.6749   -9.4531 H         1 MOL1        0.0588
     55  H4         -7.8451   10.5340  -11.8980 H         1 MOL1        0.0601
     56  H5         -6.9591    8.8631  -11.3901 H         1 MOL1        0.0601
     57  H6         -5.2970   10.6420  -11.4100 H         1 MOL1        0.0516
     58  H7         -6.4440   11.9240  -10.4420 H         1 MOL1        0.0516
     59  H8         -3.5481   11.8161  -10.2502 H         1 MOL1        0.0605
     60  H9         -2.2350   11.1359   -9.0329 H         1 MOL1        0.0605
     61  H10        -4.4030   13.4249   -8.2470 H         1 MOL1        0.0480
     62  H11        -2.7650   13.7739   -9.2419 H         1 MOL1        0.0480
     63  H12        -1.4110   12.5121   -7.3600 H         1 MOL1        0.0528
     64  H13        -3.0070   12.5260   -6.2619 H         1 MOL1        0.0528
     65  H14        -1.7930   15.1791   -8.7659 H         1 MOL1        0.0528
     66  H15        -0.2362   14.4362   -7.8419 H         1 MOL1        0.0528
     67  H16        -1.7919   17.2180   -7.1982 H         1 MOL1        0.0483
     68  H17        -0.0878   16.9870   -8.1350 H         1 MOL1        0.0483
     69  H18         0.8601   15.7339   -6.0879 H         1 MOL1        0.0618
     70  H19        -0.4561   15.7470   -3.8531 H         1 MOL1        0.0483
     71  H20        -2.0039   16.5020   -4.7889 H         1 MOL1        0.0483
     72  H21        -0.4120   13.7651   -5.4800 H         1 MOL1        0.0528
     73  H22        -2.1251   13.9151   -4.5640 H         1 MOL1        0.0528
     74  H23        -1.0761   19.3511   -5.5419 H         1 MOL1        0.0593
     75  H24        -0.7361   18.3830   -3.8440 H         1 MOL1        0.0593
     76  H25         1.3929   19.4982   -3.4909 H         1 MOL1        0.0476
     77  H26         0.5311   20.9319   -4.5260 H         1 MOL1        0.0476
     78  H27         3.0690   19.6830   -5.2280 H         1 MOL1        0.0527
     79  H28         1.7589   20.3110   -6.5700 H         1 MOL1        0.0527
     80  H29        -3.5570    7.6371   -6.0600 H         1 MOL1        0.0910
     81  H30        -3.9221    6.2539   -4.2001 H         1 MOL1        0.0908
     82  H31        -7.5110    8.7330   -6.0290 H         1 MOL1        0.0929
     83  H32        -9.7119    9.5768   -4.2980 H         1 MOL1        0.0553
     84  H33       -10.0330    8.8710   -2.5231 H         1 MOL1        0.0553
     85  H34        -7.5310   10.3630   -3.8040 H         1 MOL1        0.0547
     86  H35        -7.1999    9.1280   -2.3530 H         1 MOL1        0.0547
     87  H36        -9.8611   11.7441   -3.2610 H         1 MOL1        0.0528
     88  H37       -10.5521   10.4090   -2.0101 H         1 MOL1        0.0528
     89  H38       -11.3779   12.7790   -1.4600 H         1 MOL1        0.0470
     90  H39       -10.2449   12.0331   -0.0470 H         1 MOL1        0.0470
     91  H40        -9.3360   14.0270   -2.4500 H         1 MOL1        0.0571
     92  H41        -7.8451   12.7629    0.1500 H         1 MOL1        0.0470
     93  H42        -7.1100   14.0881   -1.1010 H         1 MOL1        0.0470
     94  H43        -6.3571   11.7320   -1.7380 H         1 MOL1        0.0528
     95  H44        -7.5431   12.5219   -3.0650 H         1 MOL1        0.0528
     96  H45        -8.3500    9.0099   -7.8670 H         1 MOL1        0.0628
     97  H46        -7.5389    7.8091   -9.1812 H         1 MOL1        0.0628
     98  H          -2.8649   14.9435   -6.6210 H         1 MOL1        0.1913
     99  H          -8.3772   10.5653   -1.0196 H         1 MOL1        0.1920
@<TRIPOS>BOND
     1      1      2 1 
     2      2      3 2 
     3      2      4 2 
     4      2      5 1 
     5      5      6 1 
     6      5     51 1 
     7      6      7 1 
     8      7      8 1 
     9      8      9 ar
    10      8     12 ar
    11      9     10 ar
    12      9     51 1 
    13     10     11 ar
    14     10     28 1 
    15     11     12 ar
    16     12     13 1 
    17     13     14 1 
    18     14     15 1 
    19     15     16 1 
    20     16     17 1 
    21     16     21 1 
    22     17     18 1 
    23     18     19 1 
    24     19     20 1 
    25     19     22 1 
    26     20     21 1 
    27     22     23 1 
    28     22     26 am
    29     23     24 1 
    30     24     25 1 
    31     25     26 1 
    32     26     27 2 
    33     28     29 ar
    34     28     33 ar
    35     29     30 ar
    36     30     31 ar
    37     31     32 ar
    38     31     47 1 
    39     32     33 ar
    40     32     34 1 
    41     34     35 1 
    42     35     36 1 
    43     36     37 1 
    44     37     38 1 
    45     37     42 1 
    46     38     39 1 
    47     39     40 1 
    48     40     41 1 
    49     40     43 1 
    50     41     42 1 
    51     43     44 1 
    52     43     45 1 
    53     43     46 1 
    54     47     48 1 
    55     47     49 1 
    56     47     50 1 
    57      1     52 1 
    58      1     53 1 
    59      1     54 1 
    60      6     55 1 
    61      6     56 1 
    62      7     57 1 
    63      7     58 1 
    64     13     59 1 
    65     13     60 1 
    66     14     61 1 
    67     14     62 1 
    68     15     63 1 
    69     15     64 1 
    70     16     98 1 
    71     17     65 1 
    72     17     66 1 
    73     18     67 1 
    74     18     68 1 
    75     19     69 1 
    76     20     70 1 
    77     20     71 1 
    78     21     72 1 
    79     21     73 1 
    80     23     74 1 
    81     23     75 1 
    82     24     76 1 
    83     24     77 1 
    84     25     78 1 
    85     25     79 1 
    86     29     80 1 
    87     30     81 1 
    88     33     82 1 
    89     35     83 1 
    90     35     84 1 
    91     36     85 1 
    92     36     86 1 
    93     37     99 1 
    94     38     87 1 
    95     38     88 1 
    96     39     89 1 
    97     39     90 1 
    98     40     91 1 
    99     41     92 1 
   100     41     93 1 
   101     42     94 1 
   102     42     95 1 
   103     51     96 1 
   104     51     97 1 
@<TRIPOS>SUBSTRUCTURE
     1 MOL1         1 MOLECULE          1 A
