# Molecule written by the XED library from Cresset
@<TRIPOS>MOLECULE
CatS_131
   100    105      1
SMALL
USER_CHARGES
@<TRIPOS>ATOM
      1  C1         -4.4862    7.5392   -5.7132 C.ar      1 MOL1       -0.0846
      2  C2         -4.6601    6.7110   -4.6311 C.ar      1 MOL1       -0.0687
      3  C3         -5.8701    6.6380   -3.9732 C.ar      1 MOL1        0.0171
      4  C4         -6.9109    7.4268   -4.4418 C.ar      1 MOL1        0.0480
      5  C5         -6.7442    8.2479   -5.5342 C.ar      1 MOL1       -0.0655
      6  C6         -5.5264    8.3209   -6.1831 C.ar      1 MOL1       -0.0066
      7  C7         -5.3730    9.2152   -7.3200 C.ar      1 MOL1        0.0391
      8  C8         -6.3012    9.5350   -8.3340 C.ar      1 MOL1       -0.0691
      9  C9         -5.6321   10.3809   -9.1235 C.ar      1 MOL1        0.0571
     10  N1         -4.3650   10.6259   -8.6810 N.pl3     1 MOL1       -0.0670
     11  N2         -4.2578    9.8691   -7.5652 N.2       1 MOL1       -0.2943
     12  C10        -3.2820   11.5018   -9.1680 C.3       1 MOL1        0.0979
     13  C11        -3.0351   12.9250   -8.6221 C.3       1 MOL1        0.0191
     14  C12        -2.4582   12.8949   -7.1940 C.3       1 MOL1       -0.0328
     15  N3         -2.1131   14.2739   -6.7861 N.4       1 MOL1       -0.2283
     16  C13        -1.2461   14.9391   -7.7821 C.3       1 MOL1       -0.0630
     17  C14        -0.9278   16.3791   -7.3871 C.3       1 MOL1       -0.0834
     18  C15        -0.3051   16.4251   -5.9979 C.3       1 MOL1       -0.0872
     19  C16        -1.2031   15.7168   -4.9989 C.3       1 MOL1       -0.0834
     20  C17        -1.4792   14.2950   -5.4641 C.3       1 MOL1       -0.0630
     21  O1         -4.2610   13.6691   -8.5962 O.3       1 MOL1       -0.4408
     22  C18        -6.2651   10.9470  -10.3860 C.3       1 MOL1       -0.0166
     23  C19        -7.7959   10.7440  -10.4583 C.3       1 MOL1        0.0808
     24  N4         -8.2500    9.4452   -9.9048 N.am      1 MOL1       -0.4013
     25  C20        -7.7319    9.0716   -8.5741 C.3       1 MOL1        0.1152
     26  C21        -9.1622    8.6351  -10.4911 C.2       1 MOL1        0.4046
     27  O2         -9.1647    7.4180  -10.3569 O.2       1 MOL1       -0.4577
     28  S1         -8.5191    7.4480   -3.6402 S.3       1 MOL1       -0.1783
     29  C26        -9.0884    9.1671   -3.5890 C.3       1 MOL1       -0.0087
     30  C27        -7.9859   10.0770   -3.0060 C.3       1 MOL1       -0.0441
     31  N5         -8.4741   11.0242   -1.9848 N.4       1 MOL1       -0.2284
     32  C28        -9.7343   11.6311   -2.4138 C.3       1 MOL1       -0.0566
     33  C29       -10.2920   12.5449   -1.3273 C.3       1 MOL1       -0.0467
     34  C30        -9.3058   13.6378   -0.9381 C.3       1 MOL1        0.0498
     35  C31        -7.9540   13.0169   -0.6358 C.3       1 MOL1       -0.0467
     36  C32        -7.4938   12.0830   -1.7473 C.3       1 MOL1       -0.0566
     37  C33        -5.9540    5.6900   -2.7789 C.3       1 MOL1        0.4149
     38  F2         -5.8199    6.3780   -1.5789 F         1 MOL1       -0.1514
     39  F3         -7.1848    5.0439   -2.7509 F         1 MOL1       -0.1514
     40  F4         -4.9793    4.6959   -2.7842 F         1 MOL1       -0.1514
     41  H41        -9.7173   14.1890    0.0451 F         1 MOL1       -0.2169
     42  H          -9.8176    9.0191  -11.1325 N.am      1 MOL1       -0.3912
     43  H         -10.3386    8.4887  -11.6079 C.3       1 MOL1        0.0912
     44  FI        -10.0997    7.1704  -11.2014 C.3       1 MOL1       -0.0686
     45  FI        -10.9262    6.3288  -11.9555 C.3       1 MOL1       -0.0890
     46  FI        -10.6023    6.5014  -13.3064 C.3       1 MOL1       -0.0920
     47  C         -10.8227    7.8441  -13.6361 C.3       1 MOL1       -0.0890
     48  C          -9.9999    8.6305  -12.8207 C.3       1 MOL1       -0.0686
     49  H          -9.1951   14.5601   -1.9739 H         1 MOL1        0.0735
     50  H1         -2.2380   13.4761   -9.3291 H         1 MOL1        0.0680
     51  H2         -3.5971    7.5730   -6.1659 H         1 MOL1        0.0910
     52  H3         -3.8920    6.1560   -4.3162 H         1 MOL1        0.0908
     53  H4         -7.5100    8.8059   -5.8540 H         1 MOL1        0.0929
     54  H5         -2.2557   10.8949   -9.0270 H         1 MOL1        0.0624
     55  H6         -3.4737   11.6019  -10.3479 H         1 MOL1        0.0624
     56  H7         -3.2400   12.3630   -6.4550 H         1 MOL1        0.0549
     57  H8         -1.4850   12.1940   -7.2511 H         1 MOL1        0.0549
     58  H9         -0.2439   14.3011   -7.9562 H         1 MOL1        0.0529
     59  H10        -1.8489   14.9609   -8.8191 H         1 MOL1        0.0529
     60  H11        -0.1580   16.8700   -8.1652 H         1 MOL1        0.0467
     61  H12        -1.9399   17.0230   -7.3742 H         1 MOL1        0.0467
     62  H13        -0.1760   17.5701   -5.6631 H         1 MOL1        0.0460
     63  H14         0.7699   15.8920   -6.0171 H         1 MOL1        0.0460
     64  H15        -2.2421   16.3121   -4.9178 H         1 MOL1        0.0467
     65  H16        -0.6710   15.7250   -3.9251 H         1 MOL1        0.0467
     66  H17        -0.4577   13.6638   -5.4442 H         1 MOL1        0.0529
     67  H18        -2.2312   13.8079   -4.6658 H         1 MOL1        0.0529
     68  H19        -4.1120   14.6072   -8.2651 H         1 MOL1        0.3291
     69  H20        -6.0528   12.1222  -10.4688 H         1 MOL1        0.0516
     70  H21        -5.7721   10.3860  -11.3250 H         1 MOL1        0.0516
     71  H22        -8.1117   10.9422  -11.5963 H         1 MOL1        0.0595
     72  H23        -8.3140   11.5920   -9.7850 H         1 MOL1        0.0595
     73  H24        -8.4471    9.5699   -7.7480 H         1 MOL1        0.0622
     74  H25        -7.7660    7.8781   -8.4603 H         1 MOL1        0.0622
     75  H33       -10.0801    9.2619   -2.9210 H         1 MOL1        0.0553
     76  H34        -9.3421    9.4981   -4.7150 H         1 MOL1        0.0553
     77  H35        -7.1080    9.4010   -2.5439 H         1 MOL1        0.0547
     78  H36        -7.5292   10.7101   -3.9190 H         1 MOL1        0.0547
     79  H37       -10.5091   10.7479   -2.6621 H         1 MOL1        0.0529
     80  H38        -9.5521   12.2629   -3.4191 H         1 MOL1        0.0529
     81  H39       -11.2780   13.0980   -1.7303 H         1 MOL1        0.0497
     82  H40       -10.5781   11.9111   -0.3480 H         1 MOL1        0.0497
     83  H42        -8.0539   12.4062    0.3930 H         1 MOL1        0.0497
     84  H43        -7.1287   13.8768   -0.4889 H         1 MOL1        0.0497
     85  H44        -7.3410   12.6999   -2.7652 H         1 MOL1        0.0529
     86  H45        -6.4350   11.6082   -1.4360 H         1 MOL1        0.0529
     87  H          -2.8878   14.7486   -6.7174 H         1 MOL1        0.1921
     88  H          -8.6153   10.5657   -1.2092 H         1 MOL1        0.1921
     89  H          -9.9129    9.8879  -11.2188 H         1 MOL1        0.2047
     90  H          -9.1351    6.9658  -11.3679 H         1 MOL1        0.0476
     91  H         -10.1023    9.5961  -13.0593 H         1 MOL1        0.0476
     92  H         -10.7556    5.3871  -11.6651 H         1 MOL1        0.0460
     93  H          -9.6399    6.2579  -13.4271 H         1 MOL1        0.0460
     94  H         -10.5913    7.9674  -14.6011 H         1 MOL1        0.0460
     95  H         -10.3158    7.1035  -10.2274 H         1 MOL1        0.0476
     96  H          -9.0476    8.3396  -12.9118 H         1 MOL1        0.0476
     97  H         -11.8755    6.5898  -11.7801 H         1 MOL1        0.0460
     98  H         -11.1926    5.9002  -13.8451 H         1 MOL1        0.0460
     99  H         -11.7877    8.0481  -13.4718 H         1 MOL1        0.0460
    100  H         -11.3775    8.7489  -11.4686 H         1 MOL1        0.0615
@<TRIPOS>BOND
     1      1      2 ar
     2      1      6 ar
     3      2      3 ar
     4      3      4 ar
     5      3     37 1 
     6      4      5 ar
     7      4     28 1 
     8      5      6 ar
     9      6      7 1 
    10      7      8 ar
    11      7     11 ar
    12      8      9 ar
    13      8     25 1 
    14      9     10 ar
    15      9     22 1 
    16     10     11 ar
    17     10     12 1 
    18     12     13 1 
    19     13     14 1 
    20     13     21 1 
    21     14     15 1 
    22     15     16 1 
    23     15     20 1 
    24     16     17 1 
    25     17     18 1 
    26     18     19 1 
    27     19     20 1 
    28     22     23 1 
    29     23     24 1 
    30     24     25 1 
    31     24     26 am
    32     26     27 2 
    33     28     29 1 
    34     29     30 1 
    35     30     31 1 
    36     31     32 1 
    37     31     36 1 
    38     32     33 1 
    39     33     34 1 
    40     34     35 1 
    41     34     41 1 
    42     35     36 1 
    43     37     38 1 
    44     37     39 1 
    45     37     40 1 
    46     42     26 am
    47     43     42 1 
    48     43     48 1 
    49     44     43 1 
    50     45     44 1 
    51     46     45 1 
    52     47     46 1 
    53     48     47 1 
    54      1     51 1 
    55      2     52 1 
    56      5     53 1 
    57     12     54 1 
    58     12     55 1 
    59     13     50 1 
    60     14     56 1 
    61     14     57 1 
    62     15     87 1 
    63     16     58 1 
    64     16     59 1 
    65     17     60 1 
    66     17     61 1 
    67     18     62 1 
    68     18     63 1 
    69     19     64 1 
    70     19     65 1 
    71     20     66 1 
    72     20     67 1 
    73     21     68 1 
    74     22     69 1 
    75     22     70 1 
    76     23     71 1 
    77     23     72 1 
    78     25     73 1 
    79     25     74 1 
    80     29     75 1 
    81     29     76 1 
    82     30     77 1 
    83     30     78 1 
    84     31     88 1 
    85     32     79 1 
    86     32     80 1 
    87     33     81 1 
    88     33     82 1 
    89     34     49 1 
    90     35     83 1 
    91     35     84 1 
    92     36     85 1 
    93     36     86 1 
    94     89     42 1 
    95     90     44 1 
    96     91     48 1 
    97     92     45 1 
    98     93     46 1 
    99     94     47 1 
   100     95     44 1 
   101     96     48 1 
   102     97     45 1 
   103     98     46 1 
   104     99     47 1 
   105    100     43 1 
@<TRIPOS>SUBSTRUCTURE
     1 MOL1         1 MOLECULE          1 A
