# Molecule written by the XED library from Cresset
@<TRIPOS>MOLECULE
CatS_185
   101    105      1
SMALL
USER_CHARGES
@<TRIPOS>ATOM
      1  C2         -0.0730   16.6140   -5.7500 C.3       1 MOL1       -0.0536
      2  C3         -0.9227   15.7400   -4.8441 C.3       1 MOL1       -0.0783
      3  C4         -1.1368   14.3780   -5.4879 C.3       1 MOL1       -0.0624
      4  N1         -1.7890   14.4969   -6.7951 N.4       1 MOL1       -0.2282
      5  C5         -0.9681   15.3260   -7.7038 C.3       1 MOL1       -0.0624
      6  C6         -0.7129   16.7182   -7.1280 C.3       1 MOL1       -0.0783
      7  C7         -2.0429   13.1670   -7.4038 C.3       1 MOL1       -0.0328
      8  C8         -3.3092   13.0530   -8.2949 C.3       1 MOL1        0.0191
      9  C9         -3.4939   11.6569   -8.9740 C.3       1 MOL1        0.0979
     10  N2         -4.3587   10.4681   -8.7432 N.pl3     1 MOL1       -0.0670
     11  C10        -5.5839   10.1768   -9.2681 C.ar      1 MOL1        0.0572
     12  C11        -6.2740    9.2901   -8.5491 C.ar      1 MOL1       -0.0684
     13  C12        -5.4102    8.9540   -7.4849 C.ar      1 MOL1        0.0392
     14  N3         -4.2990    9.6549   -7.6450 N.2       1 MOL1       -0.2943
     15  C13        -5.6731    8.0781   -6.3410 C.ar      1 MOL1       -0.0066
     16  C14        -4.6270    7.3002   -5.8859 C.ar      1 MOL1       -0.0846
     17  C15        -4.7568    6.5309   -4.7569 C.ar      1 MOL1       -0.0687
     18  C16        -5.9250    6.5021   -4.0210 C.ar      1 MOL1        0.0171
     19  C17        -7.0082    7.2399   -4.4828 C.ar      1 MOL1        0.0480
     20  C18        -6.8690    7.9990   -5.6311 C.ar      1 MOL1       -0.0655
     21  S1         -8.6060    7.3359   -3.6277 S.3       1 MOL1       -0.1783
     22  C19        -9.4418    8.9120   -3.1978 C.3       1 MOL1       -0.0087
     23  C20        -8.3441    9.9560   -2.8597 C.3       1 MOL1       -0.0441
     24  N4         -8.6159   11.0731   -1.9191 N.4       1 MOL1       -0.2286
     25  C21       -10.0010   11.5208   -2.0631 C.3       1 MOL1       -0.0625
     26  C22       -10.3279   12.6041   -1.0379 C.3       1 MOL1       -0.0797
     27  C23        -9.3921   13.7980   -1.1520 C.3       1 MOL1       -0.0638
     28  C24        -7.9520   13.3161   -1.1531 C.3       1 MOL1       -0.0797
     29  C25        -7.7231   12.2040   -2.1670 C.3       1 MOL1       -0.0625
     30  C26        -5.8592    5.6670   -2.7469 C.3       1 MOL1        0.4149
     31  F2         -7.0142    4.9251   -2.5171 F         1 MOL1       -0.1514
     32  F3         -5.6491    6.4550   -1.6221 F         1 MOL1       -0.1514
     33  F4         -4.8280    4.7410   -2.8281 F         1 MOL1       -0.1514
     34  C27        -7.6891    8.8532   -8.9001 C.3       1 MOL1        0.1169
     35  N5         -8.3880    9.7011   -9.8890 N.3       1 MOL1       -0.4606
     36  C28        -7.4591   10.0388  -10.9910 C.3       1 MOL1        0.0844
     37  C29        -6.2001   10.8081  -10.5070 C.3       1 MOL1       -0.0158
     38  S2         -9.9431    9.2752  -10.1869 S.3       1 MOL1        0.4316
     39  O1         -9.9670    7.8832   -9.8720 O.2       1 MOL1       -0.3139
     40  O2        -10.1029    9.4902  -11.5880 O.2       1 MOL1       -0.3139
     41  C30       -11.5720    9.7760   -9.5749 C.3       1 MOL1        0.0421
     42  C31         0.1062   18.0261   -5.1611 C.3       1 MOL1       -0.0490
     43  H28        -9.5810   14.5220   -0.2140 C.3       1 MOL1       -0.1200
     44  H43        -0.9660   18.5278   -4.9669 C.3       1 MOL1       -0.1161
     45  H44         0.7302   18.7019   -5.9331 C.3       1 MOL1       -0.1161
     46  H45         0.7101   17.9570   -4.1261 C.3       1 MOL1       -0.1161
     47  H1         -4.2390   13.1648   -7.5460 O.3       1 MOL1       -0.4408
     48  O3         -3.4290   14.1700   -9.1870 H         1 MOL1        0.0680
     49  H           1.3338   16.0010   -5.8729 H         1 MOL1        0.0492
     50  H          -9.6721   14.4918   -2.3300 H         1 MOL1        0.0485
     51  H5         -1.9700   16.2880   -4.6292 H         1 MOL1        0.0470
     52  H6         -0.3640   15.6002   -3.7911 H         1 MOL1        0.0470
     53  H7         -0.0640   13.8449   -5.4829 H         1 MOL1        0.0529
     54  H8         -1.8560   13.7671   -4.7460 H         1 MOL1        0.0529
     55  H9          0.0860   14.7890   -7.9052 H         1 MOL1        0.0529
     56  H10        -1.5379   15.4579   -8.7510 H         1 MOL1        0.0529
     57  H11        -1.7711   17.2778   -7.0539 H         1 MOL1        0.0470
     58  H12        -0.0081   17.3401   -7.8758 H         1 MOL1        0.0470
     59  H13        -1.1192   12.8882   -8.1170 H         1 MOL1        0.0549
     60  H14        -2.1010   12.3479   -6.5279 H         1 MOL1        0.0549
     61  H15        -3.6392   11.8998  -10.1400 H         1 MOL1        0.0624
     62  H16        -2.3971   11.1729   -8.8920 H         1 MOL1        0.0624
     63  H17        -3.7550    7.3129   -6.3770 H         1 MOL1        0.0910
     64  H18        -3.9719    5.9941   -4.4509 H         1 MOL1        0.0908
     65  H19        -7.6539    8.5292   -5.9439 H         1 MOL1        0.0929
     66  H20       -10.1220    8.7890   -2.2209 H         1 MOL1        0.0553
     67  H21       -10.1121    9.2964   -4.1161 H         1 MOL1        0.0553
     68  H22        -7.3820    9.3488   -2.4772 H         1 MOL1        0.0547
     69  H23        -8.0589   10.4588   -3.9129 H         1 MOL1        0.0547
     70  H24       -10.6990   10.5538   -1.9231 H         1 MOL1        0.0528
     71  H25       -10.1970   11.9491   -3.1671 H         1 MOL1        0.0528
     72  H26       -11.4380   13.0200   -1.2280 H         1 MOL1        0.0470
     73  H27       -10.2711   12.1602    0.0762 H         1 MOL1        0.0470
     74  H29        -7.6901   12.9481   -0.0398 H         1 MOL1        0.0470
     75  H30        -7.2302   14.2410   -1.4130 H         1 MOL1        0.0470
     76  H31        -7.9249   12.6462   -3.2640 H         1 MOL1        0.0528
     77  H32        -6.5718   11.8758   -2.0900 H         1 MOL1        0.0528
     78  H33        -8.3719    8.9078   -7.9169 H         1 MOL1        0.0628
     79  H34        -7.6543    7.7252   -9.3070 H         1 MOL1        0.0628
     80  H35        -7.1281    9.0280  -11.5450 H         1 MOL1        0.0601
     81  H36        -8.0411   10.7380  -11.7742 H         1 MOL1        0.0601
     82  H37        -5.3911   10.8442  -11.3931 H         1 MOL1        0.0516
     83  H38        -6.5252   11.9300  -10.2320 H         1 MOL1        0.0516
     84  H39       -11.7831   10.9190   -9.8741 H         1 MOL1        0.0588
     85  H40       -11.6089    9.6609   -8.3811 H         1 MOL1        0.0588
     86  H41       -12.4130    9.0753  -10.0660 H         1 MOL1        0.0588
     87  H         -10.6432   14.6412   -0.0595 H         1 MOL1        0.0435
     88  H          -9.1348   14.0901    0.6696 H         1 MOL1        0.0435
     89  H          -9.1350   15.4862   -0.4080 H         1 MOL1        0.0435
     90  H          -1.7447   17.8299   -5.2371 H         1 MOL1        0.0438
     91  H          -1.0594   18.7848   -3.9220 H         1 MOL1        0.0438
     92  H          -1.0592   19.4210   -5.5666 H         1 MOL1        0.0438
     93  H           1.7872   18.5559   -5.7665 H         1 MOL1        0.0438
     94  H           0.4822   18.4151   -6.9445 H         1 MOL1        0.0438
     95  H           0.4823   19.7423   -5.7829 H         1 MOL1        0.0438
     96  H           1.7712   17.9704   -4.3267 H         1 MOL1        0.0438
     97  H           0.4511   18.7990   -3.5012 H         1 MOL1        0.0438
     98  H           0.4512   17.0393   -3.6185 H         1 MOL1        0.0438
     99  H          -2.5938   14.9081   -6.6692 H         1 MOL1        0.1921
    100  H          -8.4915   10.7729   -1.0665 H         1 MOL1        0.1920
    101  H          -5.1146   13.1010   -8.0374 H         1 MOL1        0.3291
@<TRIPOS>BOND
     1      1      2 1 
     2      1      6 1 
     3      1     42 1 
     4      2      3 1 
     5      3      4 1 
     6      4      5 1 
     7      4      7 1 
     8      5      6 1 
     9      7      8 1 
    10      8      9 1 
    11      8     47 1 
    12      9     10 1 
    13     10     11 ar
    14     10     14 ar
    15     11     12 ar
    16     11     37 1 
    17     12     13 ar
    18     12     34 1 
    19     13     14 ar
    20     13     15 1 
    21     15     16 ar
    22     15     20 ar
    23     16     17 ar
    24     17     18 ar
    25     18     19 ar
    26     18     30 1 
    27     19     20 ar
    28     19     21 1 
    29     21     22 1 
    30     22     23 1 
    31     23     24 1 
    32     24     25 1 
    33     24     29 1 
    34     25     26 1 
    35     26     27 1 
    36     27     28 1 
    37     27     43 1 
    38     28     29 1 
    39     30     31 1 
    40     30     32 1 
    41     30     33 1 
    42     34     35 1 
    43     35     36 1 
    44     35     38 1 
    45     36     37 1 
    46     38     39 2 
    47     38     40 2 
    48     38     41 1 
    49     42     44 1 
    50     42     45 1 
    51     42     46 1 
    52      2     51 1 
    53      2     52 1 
    54      3     53 1 
    55      3     54 1 
    56      5     55 1 
    57      5     56 1 
    58      6     57 1 
    59      6     58 1 
    60      7     59 1 
    61      7     60 1 
    62      8     48 1 
    63      9     61 1 
    64      9     62 1 
    65     16     63 1 
    66     17     64 1 
    67     20     65 1 
    68     22     66 1 
    69     22     67 1 
    70     23     68 1 
    71     23     69 1 
    72     25     70 1 
    73     25     71 1 
    74     26     72 1 
    75     26     73 1 
    76     27     50 1 
    77     28     74 1 
    78     28     75 1 
    79     29     76 1 
    80     29     77 1 
    81     34     78 1 
    82     34     79 1 
    83     36     80 1 
    84     36     81 1 
    85     37     82 1 
    86     37     83 1 
    87     41     84 1 
    88     41     85 1 
    89     41     86 1 
    90     47    101 1 
    91     49      1 1 
    92     87     43 1 
    93     88     43 1 
    94     89     43 1 
    95     90     44 1 
    96     91     44 1 
    97     92     44 1 
    98     93     45 1 
    99     94     45 1 
   100     95     45 1 
   101     96     46 1 
   102     97     46 1 
   103     98     46 1 
   104     99      4 1 
   105    100     24 1 
@<TRIPOS>SUBSTRUCTURE
     1 MOL1         1 MOLECULE          1 A
