CatS_255
 OpenBabel05281909343D

 96100  0  0  1  0  0  0  0  0999 V2000
   -0.1248   16.1700   -5.7826 C   0  0  0  0  0  0  0  0  0  0  0  0
   -1.1909   15.5858   -4.8381 C   0  0  0  0  0  0  0  0  0  0  0  0
   -1.6666   14.2212   -5.3740 C   0  0  0  0  0  0  0  0  0  0  0  0
   -2.2338   14.3438   -6.7310 N   0  3  0  0  0  0  0  0  0  0  0  0
   -1.2230   14.8907   -7.6592 C   0  0  0  0  0  0  0  0  0  0  0  0
   -0.7221   16.2750   -7.1990 C   0  0  0  0  0  0  0  0  0  0  0  0
   -2.7051   13.0260   -7.1972 C   0  0  0  0  0  0  0  0  0  0  0  0
   -3.4129   13.0567   -8.5710 C   0  0  1  0  0  0  0  0  0  0  0  0
   -3.3397   11.6550   -9.2002 C   0  0  0  0  0  0  0  0  0  0  0  0
   -4.3390   10.6961   -8.7084 N   0  0  0  0  0  0  0  0  0  0  0  0
   -5.5309   10.3251   -9.2409 C   0  0  0  0  0  0  0  0  0  0  0  0
   -6.2051    9.4820   -8.4580 C   0  0  0  0  0  0  0  0  0  0  0  0
   -5.3401    9.2806   -7.3580 C   0  0  0  0  0  0  0  0  0  0  0  0
   -4.2645   10.0228   -7.5357 N   0  0  0  0  0  0  0  0  0  0  0  0
   -5.5280    8.4129   -6.2061 C   0  0  0  0  0  0  0  0  0  0  0  0
   -4.4677    7.7391   -5.6282 C   0  0  0  0  0  0  0  0  0  0  0  0
   -4.6601    6.9418   -4.5283 C   0  0  0  0  0  0  0  0  0  0  0  0
   -5.9101    6.7697   -3.9694 C   0  0  0  0  0  0  0  0  0  0  0  0
   -6.9758    7.4400   -4.5579 C   0  0  0  0  0  0  0  0  0  0  0  0
   -6.7839    8.2539   -5.6507 C   0  0  0  0  0  0  0  0  0  0  0  0
   -8.6623    7.2886   -3.9528 S   0  0  0  0  0  0  0  0  0  0  0  0
   -9.2127    8.9473   -3.4727 C   0  0  0  0  0  0  0  0  0  0  0  0
   -8.0197    9.8152   -3.0207 C   0  0  0  0  0  0  0  0  0  0  0  0
   -8.4069   10.8679   -2.0650 N   0  3  2  0  0  0  0  0  0  0  0  0
   -9.7687   11.3442   -2.3739 C   0  0  0  0  0  0  0  0  0  0  0  0
  -10.2311   12.4113   -1.3620 C   0  0  0  0  0  0  0  0  0  0  0  0
   -9.2443   13.5921   -1.3597 C   0  0  2  0  0  0  0  0  0  0  0  0
   -7.8201   13.0743   -1.0855 C   0  0  0  0  0  0  0  0  0  0  0  0
   -7.4532   11.9948   -2.1230 C   0  0  0  0  0  0  0  0  0  0  0  0
   -5.9448    5.8568   -2.7419 C   0  0  0  0  0  0  0  0  0  0  0  0
   -4.9472    4.8881   -2.7811 F   0  0  0  0  0  0  0  0  0  0  0  0
   -7.1419    5.1656   -2.5930 F   0  0  0  0  0  0  0  0  0  0  0  0
   -5.7380    6.5908   -1.5779 F   0  0  0  0  0  0  0  0  0  0  0  0
   -7.5839    8.9489   -8.8237 C   0  0  0  0  0  0  0  0  0  0  0  0
   -8.2562    9.7460   -9.8750 N   0  0  0  0  0  0  0  0  0  0  0  0
   -7.3183    9.9450  -11.0008 C   0  0  0  0  0  0  0  0  0  0  0  0
   -6.0941   10.7930  -10.5730 C   0  0  0  0  0  0  0  0  0  0  0  0
   -9.7910    9.3100  -10.1696 S   0  0  0  0  0  0  0  0  0  0  0  0
   -9.8658    7.9422   -9.7664 O   0  0  0  0  0  0  0  0  0  0  0  0
  -10.0691    9.5801  -11.5448 O   0  0  0  0  0  0  0  0  0  0  0  0
  -10.9189   10.2891   -9.1311 C   0  0  0  0  0  0  0  0  0  0  0  0
   -9.5603   14.3841   -0.5172 C   0  0  0  0  0  0  0  0  0  0  0  0
  -10.6681   14.8128   -0.7014 C   0  0  0  0  0  0  0  0  0  0  0  0
   -9.5371   13.9348    0.5973 C   0  0  0  0  0  0  0  0  0  0  0  0
   -8.8302   15.3388   -0.5349 O   0  0  0  0  0  0  0  0  0  0  0  0
   -4.5658   13.3630   -8.4240 O   0  0  0  0  0  0  0  0  0  0  0  0
    0.8142   15.4250   -5.8328 H   0  0  0  0  0  0  0  0  0  0  0  0
   -0.7250   15.4542   -3.7390 H   0  0  0  0  0  0  0  0  0  0  0  0
   -2.1308   16.3300   -4.7862 H   0  0  0  0  0  0  0  0  0  0  0  0
   -2.5058   13.8240   -4.6130 H   0  0  0  0  0  0  0  0  0  0  0  0
   -0.7430   13.4541   -5.3878 H   0  0  0  0  0  0  0  0  0  0  0  0
   -1.7001   15.0319   -8.7497 H   0  0  0  0  0  0  0  0  0  0  0  0
   -0.2801   14.1496   -7.7231 H   0  0  0  0  0  0  0  0  0  0  0  0
    0.1172   16.6710   -7.9591 H   0  0  0  0  0  0  0  0  0  0  0  0
   -1.6446   17.0419   -7.1907 H   0  0  0  0  0  0  0  0  0  0  0  0
   -3.5299   12.6209   -6.4256 H   0  0  0  0  0  0  0  0  0  0  0  0
   -1.8131   12.2239   -7.2247 H   0  0  0  0  0  0  0  0  0  0  0  0
   -2.8848   13.8324   -9.3197 H   0  0  0  0  0  0  0  0  0  0  0  0
   -3.4750   11.7687  -10.3871 H   0  0  0  0  0  0  0  0  0  0  0  0
   -2.2549   11.1927   -8.9837 H   0  0  0  0  0  0  0  0  0  0  0  0
   -3.5486    7.8381   -6.0089 H   0  0  0  0  0  0  0  0  0  0  0  0
   -3.8719    6.4757   -4.1251 H   0  0  0  0  0  0  0  0  0  0  0  0
   -7.5650    8.7321   -6.0517 H   0  0  0  0  0  0  0  0  0  0  0  0
   -9.7311    9.4500   -4.4320 H   0  0  0  0  0  0  0  0  0  0  0  0
  -10.0245    8.8693   -2.5915 H   0  0  0  0  0  0  0  0  0  0  0  0
   -7.5950   10.3442   -4.0119 H   0  0  0  0  0  0  0  0  0  0  0  0
   -7.1414    9.1330   -2.5672 H   0  0  0  0  0  0  0  0  0  0  0  0
  -10.5488   10.4349   -2.3164 H   0  0  0  0  0  0  0  0  0  0  0  0
   -9.7887   11.8012   -3.4839 H   0  0  0  0  0  0  0  0  0  0  0  0
  -10.2649   11.9165   -0.2700 H   0  0  0  0  0  0  0  0  0  0  0  0
  -11.3256   12.8012   -1.6602 H   0  0  0  0  0  0  0  0  0  0  0  0
   -7.0418   13.9840   -1.1570 H   0  0  0  0  0  0  0  0  0  0  0  0
   -7.7743   12.5994    0.0151 H   0  0  0  0  0  0  0  0  0  0  0  0
   -7.4590   12.4815   -3.2210 H   0  0  0  0  0  0  0  0  0  0  0  0
   -6.3404   11.6217   -1.8749 H   0  0  0  0  0  0  0  0  0  0  0  0
   -7.4862    7.8081   -9.1818 H   0  0  0  0  0  0  0  0  0  0  0  0
   -8.2798    8.9948   -7.8459 H   0  0  0  0  0  0  0  0  0  0  0  0
   -6.9428    8.8780  -11.4009 H   0  0  0  0  0  0  0  0  0  0  0  0
   -7.8696   10.5230  -11.8949 H   0  0  0  0  0  0  0  0  0  0  0  0
   -6.4276   11.9413  -10.4687 H   0  0  0  0  0  0  0  0  0  0  0  0
   -5.2557   10.6983  -11.4261 H   0  0  0  0  0  0  0  0  0  0  0  0
  -11.0142   11.4134   -9.5423 H   0  0  0  0  0  0  0  0  0  0  0  0
  -12.0135    9.7990   -9.1411 H   0  0  0  0  0  0  0  0  0  0  0  0
  -10.5204   10.3165   -7.9994 H   0  0  0  0  0  0  0  0  0  0  0  0
   -2.9461   14.9137   -6.7057 H   0  0  0  0  0  0  0  0  0  0  0  0
   -8.4053   10.5166   -1.2235 H   0  0  0  0  0  0  0  0  0  0  0  0
    0.2258   17.2509   -5.3978 H   0  0  0  0  0  0  0  0  0  0  0  0
   -9.2595   14.0936   -2.4521 H   0  0  0  0  0  0  0  0  0  0  0  0
  -11.6102   14.2396   -0.2162 H   0  0  0  0  0  0  0  0  0  0  0  0
  -10.9622   15.0469   -1.8452 H   0  0  0  0  0  0  0  0  0  0  0  0
  -10.7765   15.9210   -0.2395 H   0  0  0  0  0  0  0  0  0  0  0  0
   -8.4942   13.8200    1.1798 H   0  0  0  0  0  0  0  0  0  0  0  0
   -9.8418   14.8476    1.3240 H   0  0  0  0  0  0  0  0  0  0  0  0
  -10.3323   13.1667    1.0652 H   0  0  0  0  0  0  0  0  0  0  0  0
   -7.9555   15.1820   -0.0643 H   0  0  0  0  0  0  0  0  0  0  0  0
   -5.0527   13.3893   -9.3039 H   0  0  0  0  0  0  0  0  0  0  0  0
  1 87  1  0  0  0  0
  2  1  1  0  0  0  0
  3  2  1  0  0  0  0
  4  3  1  0  0  0  0
  4 85  1  0  0  0  0
  5  4  1  0  0  0  0
  6  1  1  0  0  0  0
  6  5  1  0  0  0  0
  7  4  1  0  0  0  0
  8  7  1  0  0  0  0
  8 58  1  6  0  0  0
  9  8  1  0  0  0  0
 10  9  1  0  0  0  0
 11 10  1  0  0  0  0
 12 11  2  0  0  0  0
 13 12  1  0  0  0  0
 14 10  1  0  0  0  0
 14 13  2  0  0  0  0
 15 13  1  0  0  0  0
 16 15  2  0  0  0  0
 17 16  1  0  0  0  0
 18 17  2  0  0  0  0
 19 18  1  0  0  0  0
 20 15  1  0  0  0  0
 20 19  2  0  0  0  0
 21 19  1  0  0  0  0
 22 21  1  0  0  0  0
 23 22  1  0  0  0  0
 24 23  1  0  0  0  0
 24 86  1  1  0  0  0
 25 24  1  0  0  0  0
 26 25  1  0  0  0  0
 27 26  1  0  0  0  0
 27 88  1  6  0  0  0
 28 27  1  0  0  0  0
 29 24  1  0  0  0  0
 29 28  1  0  0  0  0
 30 18  1  0  0  0  0
 31 30  1  0  0  0  0
 32 30  1  0  0  0  0
 33 30  1  0  0  0  0
 34 12  1  0  0  0  0
 35 34  1  0  0  0  0
 36 35  1  0  0  0  0
 37 11  1  0  0  0  0
 37 36  1  0  0  0  0
 38 35  1  0  0  0  0
 39 38  2  0  0  0  0
 40 38  2  0  0  0  0
 41 38  1  0  0  0  0
 42 27  1  0  0  0  0
 42 43  1  0  0  0  0
 42 44  1  0  0  0  0
 42 45  1  0  0  0  0
 43 89  1  0  0  0  0
 43 90  1  0  0  0  0
 43 91  1  0  0  0  0
 44 92  1  0  0  0  0
 44 93  1  0  0  0  0
 44 94  1  0  0  0  0
 45 95  1  0  0  0  0
 46  8  1  0  0  0  0
 46 96  1  0  0  0  0
 47  1  1  0  0  0  0
 48  2  1  0  0  0  0
 49  2  1  0  0  0  0
 50  3  1  0  0  0  0
 51  3  1  0  0  0  0
 52  5  1  0  0  0  0
 53  5  1  0  0  0  0
 54  6  1  0  0  0  0
 55  6  1  0  0  0  0
 56  7  1  0  0  0  0
 57  7  1  0  0  0  0
 59  9  1  0  0  0  0
 60  9  1  0  0  0  0
 61 16  1  0  0  0  0
 62 17  1  0  0  0  0
 63 20  1  0  0  0  0
 64 22  1  0  0  0  0
 65 22  1  0  0  0  0
 66 23  1  0  0  0  0
 67 23  1  0  0  0  0
 68 25  1  0  0  0  0
 69 25  1  0  0  0  0
 70 26  1  0  0  0  0
 71 26  1  0  0  0  0
 72 28  1  0  0  0  0
 73 28  1  0  0  0  0
 74 29  1  0  0  0  0
 75 29  1  0  0  0  0
 76 34  1  0  0  0  0
 77 34  1  0  0  0  0
 78 36  1  0  0  0  0
 79 36  1  0  0  0  0
 80 37  1  0  0  0  0
 81 37  1  0  0  0  0
 82 41  1  0  0  0  0
 83 41  1  0  0  0  0
 84 41  1  0  0  0  0
M  CHG  2   4   1  24   1
M  END
$$$$
