CatS_185
 OpenBabel05281909343D

101105  0  0  1  0  0  0  0  0999 V2000
   -0.0730   16.6140   -5.7500 C   0  0  1  0  0  0  0  0  0  0  0  0
   -0.9227   15.7400   -4.8441 C   0  0  0  0  0  0  0  0  0  0  0  0
   -1.1368   14.3780   -5.4879 C   0  0  0  0  0  0  0  0  0  0  0  0
   -1.7890   14.4969   -6.7951 N   0  3  1  0  0  0  0  0  0  0  0  0
   -0.9681   15.3260   -7.7038 C   0  0  0  0  0  0  0  0  0  0  0  0
   -0.7129   16.7182   -7.1280 C   0  0  0  0  0  0  0  0  0  0  0  0
   -2.0429   13.1670   -7.4038 C   0  0  0  0  0  0  0  0  0  0  0  0
   -3.3092   13.0530   -8.2949 C   0  0  1  0  0  0  0  0  0  0  0  0
   -3.4939   11.6569   -8.9740 C   0  0  0  0  0  0  0  0  0  0  0  0
   -4.3587   10.4681   -8.7432 N   0  0  0  0  0  0  0  0  0  0  0  0
   -5.5839   10.1768   -9.2681 C   0  0  0  0  0  0  0  0  0  0  0  0
   -6.2740    9.2901   -8.5491 C   0  0  0  0  0  0  0  0  0  0  0  0
   -5.4102    8.9540   -7.4849 C   0  0  0  0  0  0  0  0  0  0  0  0
   -4.2990    9.6549   -7.6450 N   0  0  0  0  0  0  0  0  0  0  0  0
   -5.6731    8.0781   -6.3410 C   0  0  0  0  0  0  0  0  0  0  0  0
   -4.6270    7.3002   -5.8859 C   0  0  0  0  0  0  0  0  0  0  0  0
   -4.7568    6.5309   -4.7569 C   0  0  0  0  0  0  0  0  0  0  0  0
   -5.9250    6.5021   -4.0210 C   0  0  0  0  0  0  0  0  0  0  0  0
   -7.0082    7.2399   -4.4828 C   0  0  0  0  0  0  0  0  0  0  0  0
   -6.8690    7.9990   -5.6311 C   0  0  0  0  0  0  0  0  0  0  0  0
   -8.6060    7.3359   -3.6277 S   0  0  0  0  0  0  0  0  0  0  0  0
   -9.4418    8.9120   -3.1978 C   0  0  0  0  0  0  0  0  0  0  0  0
   -8.3441    9.9560   -2.8597 C   0  0  0  0  0  0  0  0  0  0  0  0
   -8.6159   11.0731   -1.9191 N   0  3  2  0  0  0  0  0  0  0  0  0
  -10.0010   11.5208   -2.0631 C   0  0  0  0  0  0  0  0  0  0  0  0
  -10.3279   12.6041   -1.0379 C   0  0  0  0  0  0  0  0  0  0  0  0
   -9.3921   13.7980   -1.1520 C   0  0  2  0  0  0  0  0  0  0  0  0
   -7.9520   13.3161   -1.1531 C   0  0  0  0  0  0  0  0  0  0  0  0
   -7.7231   12.2040   -2.1670 C   0  0  0  0  0  0  0  0  0  0  0  0
   -5.8592    5.6670   -2.7469 C   0  0  0  0  0  0  0  0  0  0  0  0
   -7.0142    4.9251   -2.5171 F   0  0  0  0  0  0  0  0  0  0  0  0
   -5.6491    6.4550   -1.6221 F   0  0  0  0  0  0  0  0  0  0  0  0
   -4.8280    4.7410   -2.8281 F   0  0  0  0  0  0  0  0  0  0  0  0
   -7.6891    8.8532   -8.9001 C   0  0  0  0  0  0  0  0  0  0  0  0
   -8.3880    9.7011   -9.8890 N   0  0  0  0  0  0  0  0  0  0  0  0
   -7.4591   10.0388  -10.9910 C   0  0  0  0  0  0  0  0  0  0  0  0
   -6.2001   10.8081  -10.5070 C   0  0  0  0  0  0  0  0  0  0  0  0
   -9.9431    9.2752  -10.1869 S   0  0  0  0  0  0  0  0  0  0  0  0
   -9.9670    7.8832   -9.8720 O   0  0  0  0  0  0  0  0  0  0  0  0
  -10.1029    9.4902  -11.5880 O   0  0  0  0  0  0  0  0  0  0  0  0
  -11.5720    9.7760   -9.5749 C   0  0  0  0  0  0  0  0  0  0  0  0
    0.1062   18.0261   -5.1611 C   0  0  0  0  0  0  0  0  0  0  0  0
   -9.5810   14.5220   -0.2140 C   0  0  0  0  0  0  0  0  0  0  0  0
   -0.9660   18.5278   -4.9669 C   0  0  0  0  0  0  0  0  0  0  0  0
    0.7302   18.7019   -5.9331 C   0  0  0  0  0  0  0  0  0  0  0  0
    0.7101   17.9570   -4.1261 C   0  0  0  0  0  0  0  0  0  0  0  0
   -4.2390   13.1648   -7.5460 O   0  0  0  0  0  0  0  0  0  0  0  0
   -3.4290   14.1700   -9.1870 H   0  0  0  0  0  0  0  0  0  0  0  0
    1.3338   16.0010   -5.8729 H   0  0  0  0  0  0  0  0  0  0  0  0
   -9.6721   14.4918   -2.3300 H   0  0  0  0  0  0  0  0  0  0  0  0
   -1.9700   16.2880   -4.6292 H   0  0  0  0  0  0  0  0  0  0  0  0
   -0.3640   15.6002   -3.7911 H   0  0  0  0  0  0  0  0  0  0  0  0
   -0.0640   13.8449   -5.4829 H   0  0  0  0  0  0  0  0  0  0  0  0
   -1.8560   13.7671   -4.7460 H   0  0  0  0  0  0  0  0  0  0  0  0
    0.0860   14.7890   -7.9052 H   0  0  0  0  0  0  0  0  0  0  0  0
   -1.5379   15.4579   -8.7510 H   0  0  0  0  0  0  0  0  0  0  0  0
   -1.7711   17.2778   -7.0539 H   0  0  0  0  0  0  0  0  0  0  0  0
   -0.0081   17.3401   -7.8758 H   0  0  0  0  0  0  0  0  0  0  0  0
   -1.1192   12.8882   -8.1170 H   0  0  0  0  0  0  0  0  0  0  0  0
   -2.1010   12.3479   -6.5279 H   0  0  0  0  0  0  0  0  0  0  0  0
   -3.6392   11.8998  -10.1400 H   0  0  0  0  0  0  0  0  0  0  0  0
   -2.3971   11.1729   -8.8920 H   0  0  0  0  0  0  0  0  0  0  0  0
   -3.7550    7.3129   -6.3770 H   0  0  0  0  0  0  0  0  0  0  0  0
   -3.9719    5.9941   -4.4509 H   0  0  0  0  0  0  0  0  0  0  0  0
   -7.6539    8.5292   -5.9439 H   0  0  0  0  0  0  0  0  0  0  0  0
  -10.1220    8.7890   -2.2209 H   0  0  0  0  0  0  0  0  0  0  0  0
  -10.1121    9.2964   -4.1161 H   0  0  0  0  0  0  0  0  0  0  0  0
   -7.3820    9.3488   -2.4772 H   0  0  0  0  0  0  0  0  0  0  0  0
   -8.0589   10.4588   -3.9129 H   0  0  0  0  0  0  0  0  0  0  0  0
  -10.6990   10.5538   -1.9231 H   0  0  0  0  0  0  0  0  0  0  0  0
  -10.1970   11.9491   -3.1671 H   0  0  0  0  0  0  0  0  0  0  0  0
  -11.4380   13.0200   -1.2280 H   0  0  0  0  0  0  0  0  0  0  0  0
  -10.2711   12.1602    0.0762 H   0  0  0  0  0  0  0  0  0  0  0  0
   -7.6901   12.9481   -0.0398 H   0  0  0  0  0  0  0  0  0  0  0  0
   -7.2302   14.2410   -1.4130 H   0  0  0  0  0  0  0  0  0  0  0  0
   -7.9249   12.6462   -3.2640 H   0  0  0  0  0  0  0  0  0  0  0  0
   -6.5718   11.8758   -2.0900 H   0  0  0  0  0  0  0  0  0  0  0  0
   -8.3719    8.9078   -7.9169 H   0  0  0  0  0  0  0  0  0  0  0  0
   -7.6543    7.7252   -9.3070 H   0  0  0  0  0  0  0  0  0  0  0  0
   -7.1281    9.0280  -11.5450 H   0  0  0  0  0  0  0  0  0  0  0  0
   -8.0411   10.7380  -11.7742 H   0  0  0  0  0  0  0  0  0  0  0  0
   -5.3911   10.8442  -11.3931 H   0  0  0  0  0  0  0  0  0  0  0  0
   -6.5252   11.9300  -10.2320 H   0  0  0  0  0  0  0  0  0  0  0  0
  -11.7831   10.9190   -9.8741 H   0  0  0  0  0  0  0  0  0  0  0  0
  -11.6089    9.6609   -8.3811 H   0  0  0  0  0  0  0  0  0  0  0  0
  -12.4130    9.0753  -10.0660 H   0  0  0  0  0  0  0  0  0  0  0  0
  -10.6432   14.6412   -0.0595 H   0  0  0  0  0  0  0  0  0  0  0  0
   -9.1348   14.0901    0.6696 H   0  0  0  0  0  0  0  0  0  0  0  0
   -9.1350   15.4862   -0.4080 H   0  0  0  0  0  0  0  0  0  0  0  0
   -1.7447   17.8299   -5.2371 H   0  0  0  0  0  0  0  0  0  0  0  0
   -1.0594   18.7848   -3.9220 H   0  0  0  0  0  0  0  0  0  0  0  0
   -1.0592   19.4210   -5.5666 H   0  0  0  0  0  0  0  0  0  0  0  0
    1.7872   18.5559   -5.7665 H   0  0  0  0  0  0  0  0  0  0  0  0
    0.4822   18.4151   -6.9445 H   0  0  0  0  0  0  0  0  0  0  0  0
    0.4823   19.7423   -5.7829 H   0  0  0  0  0  0  0  0  0  0  0  0
    1.7712   17.9704   -4.3267 H   0  0  0  0  0  0  0  0  0  0  0  0
    0.4511   18.7990   -3.5012 H   0  0  0  0  0  0  0  0  0  0  0  0
    0.4512   17.0393   -3.6185 H   0  0  0  0  0  0  0  0  0  0  0  0
   -2.5938   14.9081   -6.6692 H   0  0  0  0  0  0  0  0  0  0  0  0
   -8.4915   10.7729   -1.0665 H   0  0  0  0  0  0  0  0  0  0  0  0
   -5.1146   13.1010   -8.0374 H   0  0  0  0  0  0  0  0  0  0  0  0
  1  2  1  0  0  0  0
  1  6  1  0  0  0  0
  1 42  1  0  0  0  0
  1 49  1  6  0  0  0
  2  3  1  0  0  0  0
  2 51  1  0  0  0  0
  2 52  1  0  0  0  0
  3  4  1  0  0  0  0
  3 53  1  0  0  0  0
  3 54  1  0  0  0  0
  4  5  1  0  0  0  0
  4  7  1  0  0  0  0
  4 99  1  1  0  0  0
  5  6  1  0  0  0  0
  5 55  1  0  0  0  0
  5 56  1  0  0  0  0
  6 57  1  0  0  0  0
  6 58  1  0  0  0  0
  7  8  1  0  0  0  0
  7 59  1  0  0  0  0
  7 60  1  0  0  0  0
  8  9  1  0  0  0  0
  8 47  1  0  0  0  0
  8 48  1  6  0  0  0
  9 10  1  0  0  0  0
  9 61  1  0  0  0  0
  9 62  1  0  0  0  0
 10 11  1  0  0  0  0
 10 14  1  0  0  0  0
 11 12  2  0  0  0  0
 11 37  1  0  0  0  0
 12 13  1  0  0  0  0
 12 34  1  0  0  0  0
 13 14  2  0  0  0  0
 13 15  1  0  0  0  0
 15 16  2  0  0  0  0
 15 20  1  0  0  0  0
 16 17  1  0  0  0  0
 16 63  1  0  0  0  0
 17 18  2  0  0  0  0
 17 64  1  0  0  0  0
 18 19  1  0  0  0  0
 18 30  1  0  0  0  0
 19 20  2  0  0  0  0
 19 21  1  0  0  0  0
 20 65  1  0  0  0  0
 21 22  1  0  0  0  0
 22 23  1  0  0  0  0
 22 66  1  0  0  0  0
 22 67  1  0  0  0  0
 23 24  1  0  0  0  0
 23 68  1  0  0  0  0
 23 69  1  0  0  0  0
 24 25  1  0  0  0  0
 24 29  1  0  0  0  0
 24100  1  1  0  0  0
 25 26  1  0  0  0  0
 25 70  1  0  0  0  0
 25 71  1  0  0  0  0
 26 27  1  0  0  0  0
 26 72  1  0  0  0  0
 26 73  1  0  0  0  0
 27 28  1  0  0  0  0
 27 43  1  0  0  0  0
 27 50  1  6  0  0  0
 28 29  1  0  0  0  0
 28 74  1  0  0  0  0
 28 75  1  0  0  0  0
 29 76  1  0  0  0  0
 29 77  1  0  0  0  0
 30 31  1  0  0  0  0
 30 32  1  0  0  0  0
 30 33  1  0  0  0  0
 34 35  1  0  0  0  0
 34 78  1  0  0  0  0
 34 79  1  0  0  0  0
 35 36  1  0  0  0  0
 35 38  1  0  0  0  0
 36 37  1  0  0  0  0
 36 80  1  0  0  0  0
 36 81  1  0  0  0  0
 37 82  1  0  0  0  0
 37 83  1  0  0  0  0
 38 39  2  0  0  0  0
 38 40  2  0  0  0  0
 38 41  1  0  0  0  0
 41 84  1  0  0  0  0
 41 85  1  0  0  0  0
 41 86  1  0  0  0  0
 42 44  1  0  0  0  0
 42 45  1  0  0  0  0
 42 46  1  0  0  0  0
 47101  1  0  0  0  0
 87 43  1  0  0  0  0
 88 43  1  0  0  0  0
 89 43  1  0  0  0  0
 90 44  1  0  0  0  0
 91 44  1  0  0  0  0
 92 44  1  0  0  0  0
 93 45  1  0  0  0  0
 94 45  1  0  0  0  0
 95 45  1  0  0  0  0
 96 46  1  0  0  0  0
 97 46  1  0  0  0  0
 98 46  1  0  0  0  0
M  CHG  2   4   1  24   1
M  END
$$$$
