# Molecule written by the XED library from Cresset
@<TRIPOS>MOLECULE
CatS_155
    93     97      1
SMALL
USER_CHARGES
@<TRIPOS>ATOM
      1  O1          2.2313   16.6400   -4.3391 C.3       1 MOL1       -0.0393
      2  C3          1.3872   17.6879   -4.5420 C.2       1 MOL1        0.2802
      3  O2          1.6511   18.7710   -4.0262 O.2       1 MOL1       -0.4214
      4  N1          0.2860   17.5012   -5.3039 N.am      1 MOL1       -0.3848
      5  C4         -0.1252   16.1702   -5.7827 C.3       1 MOL1        0.0939
      6  C5         -1.1912   15.5860   -4.8380 C.3       1 MOL1       -0.0600
      7  C6         -1.6669   14.2211   -5.3740 C.3       1 MOL1       -0.0594
      8  N2         -2.2339   14.3438   -6.7308 N.4       1 MOL1       -0.2281
      9  C7         -1.2228   14.8911   -7.6593 C.3       1 MOL1       -0.0594
     10  C8         -0.7217   16.2749   -7.1989 C.3       1 MOL1       -0.0600
     11  C9         -2.7050   13.0259   -7.1968 C.3       1 MOL1       -0.0328
     12  C10        -3.4132   13.0571   -8.5709 C.3       1 MOL1        0.0191
     13  C11        -3.3400   11.6550   -9.1998 C.3       1 MOL1        0.0979
     14  N3         -4.3390   10.6961   -8.7088 N.pl3     1 MOL1       -0.0670
     15  C12        -5.5312   10.3248   -9.2410 C.ar      1 MOL1        0.0572
     16  C13        -6.2049    9.4821   -8.4578 C.ar      1 MOL1       -0.0684
     17  C14        -5.3399    9.2810   -7.3580 C.ar      1 MOL1        0.0392
     18  N4         -4.2650   10.0230   -7.5358 N.2       1 MOL1       -0.2943
     19  C15        -5.5278    8.4129   -6.2061 C.ar      1 MOL1       -0.0066
     20  C16        -4.4680    7.7388   -5.6279 C.ar      1 MOL1       -0.0846
     21  C17        -4.6602    6.9418   -4.5279 C.ar      1 MOL1       -0.0687
     22  C18        -5.9099    6.7698   -3.9697 C.ar      1 MOL1        0.0171
     23  C19        -6.9761    7.4399   -4.5579 C.ar      1 MOL1        0.0480
     24  C20        -6.7842    8.2539   -5.6508 C.ar      1 MOL1       -0.0655
     25  S1         -8.6619    7.2888   -3.9531 S.3       1 MOL1       -0.1782
     26  C21        -9.2130    8.9469   -3.4730 C.3       1 MOL1       -0.0086
     27  C22        -8.0200    9.8149   -3.0210 C.3       1 MOL1       -0.0435
     28  N5         -8.4071   10.8678   -2.0650 N.4       1 MOL1       -0.2221
     29  C23        -9.7689   11.3441   -2.3740 C.3       1 MOL1       -0.0619
     30  C24       -10.2310   12.4110   -1.3620 C.3       1 MOL1       -0.0723
     31  C25        -9.2441   13.5921   -1.3600 C.3       1 MOL1       -0.0219
     32  C26        -7.8200   13.0740   -1.0852 C.3       1 MOL1        0.1911
     33  C27        -7.4529   11.9953   -2.1233 C.3       1 MOL1        0.0050
     34  C28        -5.9450    5.8568   -2.7420 C.3       1 MOL1        0.4149
     35  F1         -4.9471    4.8882   -2.7811 F         1 MOL1       -0.1514
     36  F2         -7.1421    5.1658   -2.5930 F         1 MOL1       -0.1514
     37  F3         -5.7380    6.5909   -1.5781 F         1 MOL1       -0.1514
     38  C29        -7.5840    8.9490   -8.8240 C.3       1 MOL1        0.1169
     39  N6         -8.2560    9.7459   -9.8750 N.3       1 MOL1       -0.4606
     40  C30        -7.3183    9.9451  -11.0010 C.3       1 MOL1        0.0844
     41  C31        -6.0937   10.7929  -10.5729 C.3       1 MOL1       -0.0158
     42  S2         -9.7911    9.3098  -10.1699 S.3       1 MOL1        0.4316
     43  O3         -9.8658    7.9421   -9.7661 O.2       1 MOL1       -0.3139
     44  O4        -10.0690    9.5797  -11.5451 O.2       1 MOL1       -0.3139
     45  C32       -10.9190   10.2892   -9.1310 C.3       1 MOL1        0.0421
     46  H35        -7.0419   13.9838   -1.1570 F         1 MOL1       -0.1800
     47  H36        -7.7740   12.5989    0.0154 F         1 MOL1       -0.1800
     48  H18        -4.5659   13.3631   -8.4238 O.3       1 MOL1       -0.4408
     49  H31       -10.2649   11.9170   -0.2702 H         1 MOL1        0.0467
     50  H32       -11.3259   12.8010   -1.6600 H         1 MOL1        0.0467
     51  H6         -0.2091   18.2002   -5.5072 H         1 MOL1        0.2040
     52  H7          0.8141   15.4249   -5.8333 H         1 MOL1        0.0615
     53  H8         -0.7248   15.4541   -3.7392 H         1 MOL1        0.0483
     54  H9         -2.1312   16.3301   -4.7860 H         1 MOL1        0.0483
     55  H10        -2.5060   13.8240   -4.6128 H         1 MOL1        0.0529
     56  H11        -0.7428   13.4541   -5.3882 H         1 MOL1        0.0529
     57  H12        -1.6999   15.0321   -8.7499 H         1 MOL1        0.0529
     58  H13        -0.2800   14.1500   -7.7228 H         1 MOL1        0.0529
     59  H14         0.1171   16.6712   -7.9592 H         1 MOL1        0.0483
     60  H15        -1.6450   17.0420   -7.1912 H         1 MOL1        0.0483
     61  H16        -3.5304   12.6211   -6.4257 H         1 MOL1        0.0549
     62  H17        -1.8129   12.2240   -7.2250 H         1 MOL1        0.0549
     63  H19        -2.8852   13.8323   -9.3197 H         1 MOL1        0.0680
     64  H20        -3.4748   11.7690  -10.3870 H         1 MOL1        0.0624
     65  H21        -2.2547   11.1927   -8.9840 H         1 MOL1        0.0624
     66  H22        -3.5490    7.8379   -6.0090 H         1 MOL1        0.0910
     67  H23        -3.8721    6.4759   -4.1250 H         1 MOL1        0.0908
     68  H24        -7.5649    8.7320   -6.0518 H         1 MOL1        0.0929
     69  H25        -9.7311    9.4499   -4.4320 H         1 MOL1        0.0553
     70  H26       -10.0249    8.8688   -2.5918 H         1 MOL1        0.0553
     71  H27        -7.5952   10.3439   -4.0119 H         1 MOL1        0.0548
     72  H28        -7.1412    9.1328   -2.5671 H         1 MOL1        0.0548
     73  H29       -10.5491   10.4352   -2.3161 H         1 MOL1        0.0530
     74  H30        -9.7889   11.8010   -3.4840 H         1 MOL1        0.0530
     75  H33        -9.5603   14.3840   -0.5171 H         1 MOL1        0.0519
     76  H34        -9.2640   14.1292   -2.4330 H         1 MOL1        0.0519
     77  H37        -7.4591   12.4808   -3.2210 H         1 MOL1        0.0586
     78  H38        -6.3400   11.6218   -1.8749 H         1 MOL1        0.0586
     79  H39        -7.4860    7.8082   -9.1821 H         1 MOL1        0.0628
     80  H40        -8.2802    8.9950   -7.8460 H         1 MOL1        0.0628
     81  H41        -6.9429    8.8782  -11.4010 H         1 MOL1        0.0601
     82  H42        -7.8698   10.5228  -11.8950 H         1 MOL1        0.0601
     83  H43        -6.4271   11.9410  -10.4688 H         1 MOL1        0.0516
     84  H44        -5.2559   10.6981  -11.4263 H         1 MOL1        0.0516
     85  H45       -11.0142   11.4130   -9.5421 H         1 MOL1        0.0588
     86  H46       -12.0138    9.7990   -9.1410 H         1 MOL1        0.0588
     87  H47       -10.5203   10.3159   -7.9992 H         1 MOL1        0.0588
     88  H          -2.9463   14.9137   -6.7054 H         1 MOL1        0.1922
     89  H          -8.4056   10.5163   -1.2228 H         1 MOL1        0.1944
     90  H           3.0935   16.9891   -3.5799 H         1 MOL1        0.0501
     91  H           1.6684   15.7122   -3.8276 H         1 MOL1        0.0501
     92  H           2.7682   16.3231   -5.3651 H         1 MOL1        0.0501
     93  H          -5.0741   13.3031   -9.2900 H         1 MOL1        0.3291
@<TRIPOS>BOND
     1      1      2 1 
     2      2      3 2 
     3      2      4 am
     4      4      5 1 
     5      5      6 1 
     6      5     10 1 
     7      6      7 1 
     8      7      8 1 
     9      8      9 1 
    10      8     11 1 
    11      9     10 1 
    12     11     12 1 
    13     12     13 1 
    14     12     48 1 
    15     13     14 1 
    16     14     15 ar
    17     14     18 ar
    18     15     16 ar
    19     15     41 1 
    20     16     17 ar
    21     16     38 1 
    22     17     18 ar
    23     17     19 1 
    24     19     20 ar
    25     19     24 ar
    26     20     21 ar
    27     21     22 ar
    28     22     23 ar
    29     22     34 1 
    30     23     24 ar
    31     23     25 1 
    32     25     26 1 
    33     26     27 1 
    34     27     28 1 
    35     28     29 1 
    36     28     33 1 
    37     29     30 1 
    38     30     31 1 
    39     31     32 1 
    40     32     33 1 
    41     32     46 1 
    42     32     47 1 
    43     34     35 1 
    44     34     36 1 
    45     34     37 1 
    46     38     39 1 
    47     39     40 1 
    48     39     42 1 
    49     40     41 1 
    50     42     43 2 
    51     42     44 2 
    52     42     45 1 
    53      4     51 1 
    54      5     52 1 
    55      6     53 1 
    56      6     54 1 
    57      7     55 1 
    58      7     56 1 
    59      8     88 1 
    60      9     57 1 
    61      9     58 1 
    62     10     59 1 
    63     10     60 1 
    64     11     61 1 
    65     11     62 1 
    66     12     63 1 
    67     13     64 1 
    68     13     65 1 
    69     20     66 1 
    70     21     67 1 
    71     24     68 1 
    72     26     69 1 
    73     26     70 1 
    74     27     71 1 
    75     27     72 1 
    76     28     89 1 
    77     29     73 1 
    78     29     74 1 
    79     30     49 1 
    80     30     50 1 
    81     31     75 1 
    82     31     76 1 
    83     33     77 1 
    84     33     78 1 
    85     38     79 1 
    86     38     80 1 
    87     40     81 1 
    88     40     82 1 
    89     41     83 1 
    90     41     84 1 
    91     45     85 1 
    92     45     86 1 
    93     45     87 1 
    94     48     93 1 
    95     90      1 1 
    96     91      1 1 
    97     92      1 1 
@<TRIPOS>SUBSTRUCTURE
     1 MOL1         1 MOLECULE          1 A
