# Molecule written by the XED library from Cresset
@<TRIPOS>MOLECULE
CatS_130
    96    100      1
SMALL
USER_CHARGES
@<TRIPOS>ATOM
      1  C1         -4.4861    7.5392   -5.7131 C.ar      1 MOL1       -0.0846
      2  C2         -4.6603    6.7109   -4.6311 C.ar      1 MOL1       -0.0687
      3  C3         -5.8700    6.6379   -3.9731 C.ar      1 MOL1        0.0171
      4  C4         -6.9110    7.4268   -4.4418 C.ar      1 MOL1        0.0480
      5  C5         -6.7441    8.2479   -5.5343 C.ar      1 MOL1       -0.0655
      6  C6         -5.5263    8.3210   -6.1831 C.ar      1 MOL1       -0.0066
      7  C7         -5.3730    9.2152   -7.3199 C.ar      1 MOL1        0.0391
      8  C8         -6.3012    9.5350   -8.3339 C.ar      1 MOL1       -0.0691
      9  C9         -5.6321   10.3809   -9.1234 C.ar      1 MOL1        0.0571
     10  N1         -4.3651   10.6259   -8.6810 N.pl3     1 MOL1       -0.0670
     11  N2         -4.2579    9.8689   -7.5652 N.2       1 MOL1       -0.2943
     12  C10        -3.2820   11.5017   -9.1681 C.3       1 MOL1        0.0979
     13  C11        -3.0352   12.9249   -8.6222 C.3       1 MOL1        0.0191
     14  C12        -2.4581   12.8949   -7.1941 C.3       1 MOL1       -0.0328
     15  N3         -2.1130   14.2739   -6.7861 N.4       1 MOL1       -0.2283
     16  C13        -1.2461   14.9391   -7.7822 C.3       1 MOL1       -0.0630
     17  C14        -0.9277   16.3790   -7.3870 C.3       1 MOL1       -0.0834
     18  C15        -0.3050   16.4251   -5.9978 C.3       1 MOL1       -0.0872
     19  C16        -1.2031   15.7169   -4.9988 C.3       1 MOL1       -0.0834
     20  C17        -1.4793   14.2951   -5.4640 C.3       1 MOL1       -0.0630
     21  O1         -4.2609   13.6691   -8.5963 O.3       1 MOL1       -0.4408
     22  C18        -6.2651   10.9470  -10.3861 C.3       1 MOL1       -0.0166
     23  C19        -7.7959   10.7439  -10.4584 C.3       1 MOL1        0.0808
     24  N4         -8.2500    9.4451   -9.9049 N.am      1 MOL1       -0.4013
     25  C20        -7.7319    9.0717   -8.5742 C.3       1 MOL1        0.1152
     26  C21        -9.1622    8.6351  -10.4911 C.2       1 MOL1        0.4048
     27  O2         -9.1647    7.4181  -10.3569 O.2       1 MOL1       -0.4577
     28  S1         -8.5191    7.4480   -3.6403 S.3       1 MOL1       -0.1783
     29  C26        -9.0884    9.1671   -3.5891 C.3       1 MOL1       -0.0087
     30  C27        -7.9859   10.0772   -3.0061 C.3       1 MOL1       -0.0441
     31  N5         -8.4741   11.0242   -1.9848 N.4       1 MOL1       -0.2284
     32  C28        -9.7344   11.6310   -2.4139 C.3       1 MOL1       -0.0566
     33  C29       -10.2921   12.5448   -1.3272 C.3       1 MOL1       -0.0467
     34  C30        -9.3059   13.6377   -0.9381 C.3       1 MOL1        0.0498
     35  C31        -7.9539   13.0168   -0.6359 C.3       1 MOL1       -0.0467
     36  C32        -7.4938   12.0830   -1.7473 C.3       1 MOL1       -0.0566
     37  C33        -5.9540    5.6900   -2.7790 C.3       1 MOL1        0.4149
     38  F2         -5.8198    6.3781   -1.5790 F         1 MOL1       -0.1514
     39  F3         -7.1847    5.0440   -2.7508 F         1 MOL1       -0.1514
     40  F4         -4.9793    4.6959   -2.7842 F         1 MOL1       -0.1514
     41  H41        -9.7173   14.1890    0.0450 F         1 MOL1       -0.2169
     42  H          -9.8176    9.0191  -11.1325 N.am      1 MOL1       -0.3904
     43  H         -10.3386    8.4886  -11.6078 C.3       1 MOL1        0.0951
     44  H         -11.1047    7.8590  -10.9209 C.3       1 MOL1       -0.0968
     45  H         -11.0789    9.0251  -12.4021 C.3       1 MOL1       -0.0968
     46  H          -9.7135    7.7402  -12.3185 C.3       1 MOL1       -0.0968
     47  H          -9.1951   14.5602   -1.9738 H         1 MOL1        0.0735
     48  H1         -2.2381   13.4760   -9.3290 H         1 MOL1        0.0680
     49  H2         -3.5971    7.5730   -6.1659 H         1 MOL1        0.0910
     50  H3         -3.8920    6.1560   -4.3162 H         1 MOL1        0.0908
     51  H4         -7.5099    8.8059   -5.8542 H         1 MOL1        0.0929
     52  H5         -2.2557   10.8949   -9.0271 H         1 MOL1        0.0624
     53  H6         -3.4737   11.6018  -10.3479 H         1 MOL1        0.0624
     54  H7         -3.2400   12.3629   -6.4551 H         1 MOL1        0.0549
     55  H8         -1.4849   12.1940   -7.2511 H         1 MOL1        0.0549
     56  H9         -0.2439   14.3011   -7.9562 H         1 MOL1        0.0529
     57  H10        -1.8489   14.9609   -8.8192 H         1 MOL1        0.0529
     58  H11        -0.1579   16.8701   -8.1651 H         1 MOL1        0.0467
     59  H12        -1.9399   17.0230   -7.3741 H         1 MOL1        0.0467
     60  H13        -0.1761   17.5700   -5.6630 H         1 MOL1        0.0460
     61  H14         0.7700   15.8919   -6.0172 H         1 MOL1        0.0460
     62  H15        -2.2421   16.3121   -4.9180 H         1 MOL1        0.0467
     63  H16        -0.6710   15.7249   -3.9250 H         1 MOL1        0.0467
     64  H17        -0.4577   13.6640   -5.4441 H         1 MOL1        0.0529
     65  H18        -2.2312   13.8080   -4.6658 H         1 MOL1        0.0529
     66  H19        -4.1120   14.6072   -8.2651 H         1 MOL1        0.3291
     67  H20        -6.0527   12.1221  -10.4688 H         1 MOL1        0.0516
     68  H21        -5.7721   10.3860  -11.3250 H         1 MOL1        0.0516
     69  H22        -8.1118   10.9422  -11.5962 H         1 MOL1        0.0595
     70  H23        -8.3140   11.5921   -9.7849 H         1 MOL1        0.0595
     71  H24        -8.4471    9.5699   -7.7480 H         1 MOL1        0.0622
     72  H25        -7.7660    7.8781   -8.4601 H         1 MOL1        0.0622
     73  H33       -10.0800    9.2620   -2.9210 H         1 MOL1        0.0553
     74  H34        -9.3421    9.4982   -4.7150 H         1 MOL1        0.0553
     75  H35        -7.1079    9.4010   -2.5439 H         1 MOL1        0.0547
     76  H36        -7.5292   10.7102   -3.9190 H         1 MOL1        0.0547
     77  H37       -10.5091   10.7478   -2.6621 H         1 MOL1        0.0529
     78  H38        -9.5522   12.2629   -3.4192 H         1 MOL1        0.0529
     79  H39       -11.2779   13.0981   -1.7303 H         1 MOL1        0.0497
     80  H40       -10.5780   11.9110   -0.3479 H         1 MOL1        0.0497
     81  H42        -8.0539   12.4063    0.3930 H         1 MOL1        0.0497
     82  H43        -7.1287   13.8768   -0.4889 H         1 MOL1        0.0497
     83  H44        -7.3409   12.6999   -2.7653 H         1 MOL1        0.0529
     84  H45        -6.4350   11.6082   -1.4360 H         1 MOL1        0.0529
     85  H          -2.8878   14.7487   -6.7174 H         1 MOL1        0.1921
     86  H          -8.6152   10.5658   -1.2091 H         1 MOL1        0.1921
     87  H          -9.9129    9.8878  -11.2188 H         1 MOL1        0.2048
     88  H         -12.1836    7.5497  -11.3675 H         1 MOL1        0.0451
     89  H         -11.3880    8.4726   -9.9219 H         1 MOL1        0.0451
     90  H         -10.8240    6.7530  -10.5306 H         1 MOL1        0.0451
     91  H         -11.9390    9.6997  -11.8848 H         1 MOL1        0.0451
     92  H         -11.6797    8.3424  -13.2001 H         1 MOL1        0.0451
     93  H         -10.5605    9.8456  -13.1239 H         1 MOL1        0.0451
     94  H          -8.6026    7.3611  -12.0456 H         1 MOL1        0.0451
     95  H          -9.3442    8.2244  -13.3603 H         1 MOL1        0.0451
     96  H         -10.2870    6.7351  -12.6643 H         1 MOL1        0.0451
@<TRIPOS>BOND
     1      1      2 ar
     2      1      6 ar
     3      2      3 ar
     4      3      4 ar
     5      3     37 1 
     6      4      5 ar
     7      4     28 1 
     8      5      6 ar
     9      6      7 1 
    10      7      8 ar
    11      7     11 ar
    12      8      9 ar
    13      8     25 1 
    14      9     10 ar
    15      9     22 1 
    16     10     11 ar
    17     10     12 1 
    18     12     13 1 
    19     13     14 1 
    20     13     21 1 
    21     14     15 1 
    22     15     16 1 
    23     15     20 1 
    24     16     17 1 
    25     17     18 1 
    26     18     19 1 
    27     19     20 1 
    28     22     23 1 
    29     23     24 1 
    30     24     25 1 
    31     24     26 am
    32     26     27 2 
    33     28     29 1 
    34     29     30 1 
    35     30     31 1 
    36     31     32 1 
    37     31     36 1 
    38     32     33 1 
    39     33     34 1 
    40     34     35 1 
    41     34     41 1 
    42     35     36 1 
    43     37     38 1 
    44     37     39 1 
    45     37     40 1 
    46     42     26 am
    47     43     42 1 
    48     44     43 1 
    49     45     43 1 
    50     46     43 1 
    51      1     49 1 
    52      2     50 1 
    53      5     51 1 
    54     12     52 1 
    55     12     53 1 
    56     13     48 1 
    57     14     54 1 
    58     14     55 1 
    59     15     85 1 
    60     16     56 1 
    61     16     57 1 
    62     17     58 1 
    63     17     59 1 
    64     18     60 1 
    65     18     61 1 
    66     19     62 1 
    67     19     63 1 
    68     20     64 1 
    69     20     65 1 
    70     21     66 1 
    71     22     67 1 
    72     22     68 1 
    73     23     69 1 
    74     23     70 1 
    75     25     71 1 
    76     25     72 1 
    77     29     73 1 
    78     29     74 1 
    79     30     75 1 
    80     30     76 1 
    81     31     86 1 
    82     32     77 1 
    83     32     78 1 
    84     33     79 1 
    85     33     80 1 
    86     34     47 1 
    87     35     81 1 
    88     35     82 1 
    89     36     83 1 
    90     36     84 1 
    91     87     42 1 
    92     88     44 1 
    93     89     44 1 
    94     90     44 1 
    95     91     45 1 
    96     92     45 1 
    97     93     45 1 
    98     94     46 1 
    99     95     46 1 
   100     96     46 1 
@<TRIPOS>SUBSTRUCTURE
     1 MOL1         1 MOLECULE          1 A
