CatS_76
 OpenBabel05281909343D

 92 96  0  0  1  0  0  0  0  0999 V2000
    1.3340   16.0009   -5.8728 C   0  0  0  0  0  0  0  0  0  0  0  0
   -0.0730   16.6140   -5.7500 C   0  0  0  0  0  0  0  0  0  0  0  0
   -0.9229   15.7400   -4.8440 C   0  0  0  0  0  0  0  0  0  0  0  0
   -1.1369   14.3781   -5.4879 C   0  0  0  0  0  0  0  0  0  0  0  0
   -1.7890   14.4969   -6.7951 N   0  3  0  0  0  0  0  0  0  0  0  0
   -0.9682   15.3260   -7.7038 C   0  0  0  0  0  0  0  0  0  0  0  0
   -0.7130   16.7181   -7.1280 C   0  0  0  0  0  0  0  0  0  0  0  0
   -2.0429   13.1670   -7.4038 C   0  0  0  0  0  0  0  0  0  0  0  0
   -3.3092   13.0530   -8.2950 C   0  0  1  0  0  0  0  0  0  0  0  0
   -3.4939   11.6569   -8.9740 C   0  0  0  0  0  0  0  0  0  0  0  0
   -4.3588   10.4680   -8.7431 N   0  0  0  0  0  0  0  0  0  0  0  0
   -5.5841   10.1769   -9.2680 C   0  0  0  0  0  0  0  0  0  0  0  0
   -6.2739    9.2902   -8.5491 C   0  0  0  0  0  0  0  0  0  0  0  0
   -5.4101    8.9540   -7.4850 C   0  0  0  0  0  0  0  0  0  0  0  0
   -4.2989    9.6549   -7.6450 N   0  0  0  0  0  0  0  0  0  0  0  0
   -5.6732    8.0780   -6.3410 C   0  0  0  0  0  0  0  0  0  0  0  0
   -4.6270    7.3002   -5.8859 C   0  0  0  0  0  0  0  0  0  0  0  0
   -4.7569    6.5309   -4.7570 C   0  0  0  0  0  0  0  0  0  0  0  0
   -5.9250    6.5021   -4.0209 C   0  0  0  0  0  0  0  0  0  0  0  0
   -7.0082    7.2399   -4.4828 C   0  0  0  0  0  0  0  0  0  0  0  0
   -6.8689    7.9990   -5.6310 C   0  0  0  0  0  0  0  0  0  0  0  0
   -8.6062    7.3360   -3.6278 S   0  0  0  0  0  0  0  0  0  0  0  0
   -9.4420    8.9121   -3.1979 C   0  0  0  0  0  0  0  0  0  0  0  0
   -8.3441    9.9560   -2.8598 C   0  0  0  0  0  0  0  0  0  0  0  0
   -8.6159   11.0730   -1.9191 N   0  3  2  0  0  0  0  0  0  0  0  0
  -10.0009   11.5208   -2.0631 C   0  0  0  0  0  0  0  0  0  0  0  0
  -10.3279   12.6040   -1.0380 C   0  0  0  0  0  0  0  0  0  0  0  0
   -9.3921   13.7980   -1.1520 C   0  0  2  0  0  0  0  0  0  0  0  0
   -7.9519   13.3158   -1.1531 C   0  0  0  0  0  0  0  0  0  0  0  0
   -7.7230   12.2040   -2.1670 C   0  0  0  0  0  0  0  0  0  0  0  0
   -5.8591    5.6670   -2.7468 C   0  0  0  0  0  0  0  0  0  0  0  0
   -7.0141    4.9251   -2.5170 F   0  0  0  0  0  0  0  0  0  0  0  0
   -5.6490    6.4550   -1.6220 F   0  0  0  0  0  0  0  0  0  0  0  0
   -4.8280    4.7410   -2.8281 F   0  0  0  0  0  0  0  0  0  0  0  0
   -7.6890    8.8531   -8.9000 C   0  0  0  0  0  0  0  0  0  0  0  0
   -8.3880    9.7009   -9.8890 N   0  0  0  0  0  0  0  0  0  0  0  0
   -7.4590   10.0388  -10.9910 C   0  0  0  0  0  0  0  0  0  0  0  0
   -6.2001   10.8081  -10.5069 C   0  0  0  0  0  0  0  0  0  0  0  0
   -9.9431    9.2751  -10.1869 S   0  0  0  0  0  0  0  0  0  0  0  0
   -9.9671    7.8830   -9.8720 O   0  0  0  0  0  0  0  0  0  0  0  0
  -10.1030    9.4900  -11.5879 O   0  0  0  0  0  0  0  0  0  0  0  0
  -11.5720    9.7760   -9.5750 C   0  0  0  0  0  0  0  0  0  0  0  0
    0.1061   18.0260   -5.1611 C   0  0  0  0  0  0  0  0  0  0  0  0
   -9.5811   14.5220   -0.2140 F   0  0  0  0  0  0  0  0  0  0  0  0
   -4.2390   13.1649   -7.5461 O   0  0  0  0  0  0  0  0  0  0  0  0
   -3.4289   14.1700   -9.1869 H   0  0  0  0  0  0  0  0  0  0  0  0
   -9.6721   14.4920   -2.3298 H   0  0  0  0  0  0  0  0  0  0  0  0
    2.0380   16.7251   -6.5210 H   0  0  0  0  0  0  0  0  0  0  0  0
    1.8090   15.8709   -4.7781 H   0  0  0  0  0  0  0  0  0  0  0  0
    1.2661   14.9289   -6.4060 H   0  0  0  0  0  0  0  0  0  0  0  0
   -1.9700   16.2879   -4.6292 H   0  0  0  0  0  0  0  0  0  0  0  0
   -0.3639   15.6002   -3.7910 H   0  0  0  0  0  0  0  0  0  0  0  0
   -0.0640   13.8450   -5.4830 H   0  0  0  0  0  0  0  0  0  0  0  0
   -1.8560   13.7671   -4.7460 H   0  0  0  0  0  0  0  0  0  0  0  0
    0.0861   14.7890   -7.9052 H   0  0  0  0  0  0  0  0  0  0  0  0
   -1.5380   15.4579   -8.7510 H   0  0  0  0  0  0  0  0  0  0  0  0
   -1.7710   17.2780   -7.0540 H   0  0  0  0  0  0  0  0  0  0  0  0
   -0.0081   17.3400   -7.8758 H   0  0  0  0  0  0  0  0  0  0  0  0
   -1.1191   12.8881   -8.1170 H   0  0  0  0  0  0  0  0  0  0  0  0
   -2.1010   12.3480   -6.5281 H   0  0  0  0  0  0  0  0  0  0  0  0
   -3.6390   11.8999  -10.1399 H   0  0  0  0  0  0  0  0  0  0  0  0
   -2.3970   11.1729   -8.8922 H   0  0  0  0  0  0  0  0  0  0  0  0
   -3.7551    7.3129   -6.3769 H   0  0  0  0  0  0  0  0  0  0  0  0
   -3.9720    5.9941   -4.4509 H   0  0  0  0  0  0  0  0  0  0  0  0
   -7.6540    8.5292   -5.9439 H   0  0  0  0  0  0  0  0  0  0  0  0
  -10.1221    8.7890   -2.2208 H   0  0  0  0  0  0  0  0  0  0  0  0
  -10.1121    9.2961   -4.1160 H   0  0  0  0  0  0  0  0  0  0  0  0
   -7.3820    9.3489   -2.4770 H   0  0  0  0  0  0  0  0  0  0  0  0
   -8.0590   10.4589   -3.9129 H   0  0  0  0  0  0  0  0  0  0  0  0
  -10.6991   10.5538   -1.9230 H   0  0  0  0  0  0  0  0  0  0  0  0
  -10.1970   11.9491   -3.1671 H   0  0  0  0  0  0  0  0  0  0  0  0
  -11.4379   13.0200   -1.2280 H   0  0  0  0  0  0  0  0  0  0  0  0
  -10.2709   12.1601    0.0760 H   0  0  0  0  0  0  0  0  0  0  0  0
   -7.6901   12.9480   -0.0398 H   0  0  0  0  0  0  0  0  0  0  0  0
   -7.2301   14.2411   -1.4129 H   0  0  0  0  0  0  0  0  0  0  0  0
   -7.9249   12.6461   -3.2639 H   0  0  0  0  0  0  0  0  0  0  0  0
   -6.5719   11.8760   -2.0899 H   0  0  0  0  0  0  0  0  0  0  0  0
   -8.3719    8.9079   -7.9170 H   0  0  0  0  0  0  0  0  0  0  0  0
   -7.6540    7.7251   -9.3069 H   0  0  0  0  0  0  0  0  0  0  0  0
   -7.1280    9.0280  -11.5450 H   0  0  0  0  0  0  0  0  0  0  0  0
   -8.0411   10.7380  -11.7742 H   0  0  0  0  0  0  0  0  0  0  0  0
   -5.3911   10.8440  -11.3929 H   0  0  0  0  0  0  0  0  0  0  0  0
   -6.5251   11.9298  -10.2320 H   0  0  0  0  0  0  0  0  0  0  0  0
  -11.7831   10.9190   -9.8742 H   0  0  0  0  0  0  0  0  0  0  0  0
  -11.6088    9.6609   -8.3811 H   0  0  0  0  0  0  0  0  0  0  0  0
  -12.4130    9.0752  -10.0660 H   0  0  0  0  0  0  0  0  0  0  0  0
   -0.9660   18.5279   -4.9668 H   0  0  0  0  0  0  0  0  0  0  0  0
    0.7302   18.7019   -5.9332 H   0  0  0  0  0  0  0  0  0  0  0  0
    0.7101   17.9570   -4.1260 H   0  0  0  0  0  0  0  0  0  0  0  0
   -2.5939   14.9081   -6.6694 H   0  0  0  0  0  0  0  0  0  0  0  0
   -8.4917   10.7729   -1.0665 H   0  0  0  0  0  0  0  0  0  0  0  0
   -5.1143   13.1156   -8.0393 H   0  0  0  0  0  0  0  0  0  0  0  0
  2  1  1  0  0  0  0
  3  2  1  0  0  0  0
  4  3  1  0  0  0  0
  5  4  1  0  0  0  0
  6  5  1  0  0  0  0
  7  2  1  0  0  0  0
  7  6  1  0  0  0  0
  8  5  1  0  0  0  0
  9  8  1  0  0  0  0
  9 46  1  6  0  0  0
 10  9  1  0  0  0  0
 11 10  1  0  0  0  0
 12 11  1  0  0  0  0
 13 12  2  0  0  0  0
 14 13  1  0  0  0  0
 15 11  1  0  0  0  0
 15 14  2  0  0  0  0
 16 14  1  0  0  0  0
 17 16  2  0  0  0  0
 18 17  1  0  0  0  0
 19 18  2  0  0  0  0
 20 19  1  0  0  0  0
 21 16  1  0  0  0  0
 21 20  2  0  0  0  0
 22 20  1  0  0  0  0
 23 22  1  0  0  0  0
 24 23  1  0  0  0  0
 25 24  1  0  0  0  0
 25 91  1  1  0  0  0
 26 25  1  0  0  0  0
 27 26  1  0  0  0  0
 28 27  1  0  0  0  0
 28 47  1  6  0  0  0
 29 28  1  0  0  0  0
 30 25  1  0  0  0  0
 30 29  1  0  0  0  0
 31 19  1  0  0  0  0
 32 31  1  0  0  0  0
 33 31  1  0  0  0  0
 34 31  1  0  0  0  0
 35 13  1  0  0  0  0
 36 35  1  0  0  0  0
 37 36  1  0  0  0  0
 38 12  1  0  0  0  0
 38 37  1  0  0  0  0
 39 36  1  0  0  0  0
 40 39  2  0  0  0  0
 41 39  2  0  0  0  0
 42 39  1  0  0  0  0
 43  2  1  0  0  0  0
 44 28  1  0  0  0  0
 45  9  1  0  0  0  0
 45 92  1  0  0  0  0
 48  1  1  0  0  0  0
 49  1  1  0  0  0  0
 50  1  1  0  0  0  0
 51  3  1  0  0  0  0
 52  3  1  0  0  0  0
 53  4  1  0  0  0  0
 54  4  1  0  0  0  0
 55  6  1  0  0  0  0
 56  6  1  0  0  0  0
 57  7  1  0  0  0  0
 58  7  1  0  0  0  0
 59  8  1  0  0  0  0
 60  8  1  0  0  0  0
 61 10  1  0  0  0  0
 62 10  1  0  0  0  0
 63 17  1  0  0  0  0
 64 18  1  0  0  0  0
 65 21  1  0  0  0  0
 66 23  1  0  0  0  0
 67 23  1  0  0  0  0
 68 24  1  0  0  0  0
 69 24  1  0  0  0  0
 70 26  1  0  0  0  0
 71 26  1  0  0  0  0
 72 27  1  0  0  0  0
 73 27  1  0  0  0  0
 74 29  1  0  0  0  0
 75 29  1  0  0  0  0
 76 30  1  0  0  0  0
 77 30  1  0  0  0  0
 78 35  1  0  0  0  0
 79 35  1  0  0  0  0
 80 37  1  0  0  0  0
 81 37  1  0  0  0  0
 82 38  1  0  0  0  0
 83 38  1  0  0  0  0
 84 42  1  0  0  0  0
 85 42  1  0  0  0  0
 86 42  1  0  0  0  0
 87 43  1  0  0  0  0
 88 43  1  0  0  0  0
 89 43  1  0  0  0  0
 90  5  1  0  0  0  0
M  CHG  2   5   1  25   1
M  END
$$$$
