# Molecule written by the XED library from Cresset
@<TRIPOS>MOLECULE
CatS_167
    86     90      1
SMALL
USER_CHARGES
@<TRIPOS>ATOM
      1  C1        -11.1100    9.8620   -9.5889 C.3       1 MOL1        0.0421
      2  S1         -9.6960    9.0640  -10.4260 S.3       1 MOL1        0.4316
      3  O1         -9.8719    9.0770  -11.8410 O.2       1 MOL1       -0.3139
      4  O2         -9.5970    7.6850  -10.0809 O.2       1 MOL1       -0.3139
      5  N1         -8.3700    9.9129   -9.9500 N.3       1 MOL1       -0.4606
      6  C2         -7.3221   10.2950  -10.9270 C.3       1 MOL1        0.0844
      7  C3         -6.1500   11.1260  -10.3569 C.3       1 MOL1       -0.0158
      8  C4         -5.5861   10.4649   -9.1170 C.ar      1 MOL1        0.0572
      9  C5         -6.3261    9.6380   -8.3821 C.ar      1 MOL1       -0.0684
     10  C6         -5.4569    9.2400   -7.3390 C.ar      1 MOL1        0.0392
     11  N2         -4.2949    9.8431   -7.5289 N.2       1 MOL1       -0.2943
     12  N3         -4.3301   10.6269   -8.6361 N.pl3     1 MOL1       -0.0670
     13  C7         -3.2480   11.4971   -9.1350 C.3       1 MOL1        0.0979
     14  C8         -3.0009   12.9921   -8.8049 C.3       1 MOL1        0.0191
     15  C9         -2.5730   13.0958   -7.3180 C.3       1 MOL1       -0.0328
     16  N4         -2.1421   14.4110   -6.7969 N.4       1 MOL1       -0.2283
     17  C10        -1.5680   14.2470   -5.4580 C.3       1 MOL1       -0.0630
     18  C11        -1.1331   15.5800   -4.8679 C.3       1 MOL1       -0.0834
     19  C12        -0.1081   16.2381   -5.7749 C.3       1 MOL1       -0.0872
     20  C13        -0.6700   16.3831   -7.1829 C.3       1 MOL1       -0.0834
     21  C14        -1.1529   15.0320   -7.7050 C.3       1 MOL1       -0.0630
     22  O3         -4.1959   13.7621   -9.0109 O.3       1 MOL1       -0.4408
     23  C15        -5.7030    8.3279   -6.2200 C.ar      1 MOL1       -0.0066
     24  C16        -4.6291    7.5410   -5.8510 C.ar      1 MOL1       -0.0846
     25  C17        -4.7199    6.6610   -4.8049 C.ar      1 MOL1       -0.0687
     26  C18        -5.8800    6.5279   -4.0729 C.ar      1 MOL1        0.0171
     27  C19        -6.9769    7.3051   -4.4240 C.ar      1 MOL1        0.0480
     28  C20        -6.8839    8.1859   -5.4910 C.ar      1 MOL1       -0.0655
     29  S2         -8.5100    7.2529   -3.4579 S.3       1 MOL1       -0.1783
     30  C21        -9.2440    8.8920   -3.0991 C.3       1 MOL1       -0.0087
     31  C22        -8.2691   10.0270   -2.6570 C.3       1 MOL1       -0.0441
     32  N5         -8.6161   11.1681   -1.7571 N.4       1 MOL1       -0.2282
     33  C23       -10.0019   11.5880   -1.9740 C.3       1 MOL1       -0.0507
     34  C24       -10.3500   12.7420   -0.9870 C.3       1 MOL1       -0.0181
     35  C25        -9.4020   13.9620   -1.0441 C.3       1 MOL1        0.1870
     36  C26        -7.9331   13.5110   -1.1112 C.3       1 MOL1       -0.0181
     37  C27        -7.7319   12.3120   -2.0680 C.3       1 MOL1       -0.0507
     38  F1         -9.7220   14.8329   -2.0919 F         1 MOL1       -0.1808
     39  F2         -9.5999   14.7190    0.0970 F         1 MOL1       -0.1808
     40  C28        -5.8030    5.5361   -2.9139 C.3       1 MOL1        0.4149
     41  F3         -5.5839    6.1639   -1.6960 F         1 MOL1       -0.1514
     42  F4         -6.9659    4.7880   -2.7561 F         1 MOL1       -0.1514
     43  F5         -4.7640    4.6371   -3.1149 F         1 MOL1       -0.1514
     44  C29        -7.7549    9.2780   -8.7549 C.3       1 MOL1        0.1169
     45  H1         -2.1230   13.4022   -9.5141 H         1 MOL1        0.0680
     46  H2        -11.0869   11.0660   -9.7220 H         1 MOL1        0.0588
     47  H3        -12.1090    9.4549  -10.1430 H         1 MOL1        0.0588
     48  H4        -11.1331    9.5380   -8.4201 H         1 MOL1        0.0588
     49  H5         -7.8180   11.0090  -11.7531 H         1 MOL1        0.0601
     50  H6         -6.8791    9.3079  -11.4470 H         1 MOL1        0.0601
     51  H7         -6.5530   12.2180  -10.0630 H         1 MOL1        0.0516
     52  H8         -5.3069   11.2300  -11.2030 H         1 MOL1        0.0516
     53  H9         -2.2340   10.9351   -8.8290 H         1 MOL1        0.0624
     54  H10        -3.3509   11.4209  -10.3270 H         1 MOL1        0.0624
     55  H11        -1.7001   12.2960   -7.1299 H         1 MOL1        0.0549
     56  H12        -3.5129   12.7749   -6.6419 H         1 MOL1        0.0549
     57  H13        -0.6260   13.5019   -5.4970 H         1 MOL1        0.0529
     58  H14        -2.4040   13.7351   -4.7640 H         1 MOL1        0.0529
     59  H15        -0.6171   15.4020   -3.7980 H         1 MOL1        0.0467
     60  H16        -2.0719   16.3119   -4.7150 H         1 MOL1        0.0467
     61  H17         0.1610   17.3260   -5.3440 H         1 MOL1        0.0460
     62  H18         0.8880   15.5679   -5.8141 H         1 MOL1        0.0460
     63  H19         0.2091   16.8080   -7.8829 H         1 MOL1        0.0467
     64  H20        -1.5551   17.1960   -7.1560 H         1 MOL1        0.0467
     65  H21        -0.2010   14.3149   -7.8480 H         1 MOL1        0.0529
     66  H22        -1.6561   15.2150   -8.7791 H         1 MOL1        0.0529
     67  H23        -4.4940   13.7331   -9.9720 H         1 MOL1        0.3291
     68  H24        -3.7671    7.6160   -6.3520 H         1 MOL1        0.0910
     69  H25        -3.9220    6.1091   -4.5670 H         1 MOL1        0.0908
     70  H26        -7.6771    8.7430   -5.7311 H         1 MOL1        0.0929
     71  H27        -9.7120    9.2281   -4.1559 H         1 MOL1        0.0553
     72  H28       -10.1730    8.8320   -2.3480 H         1 MOL1        0.0553
     73  H29        -7.8790   10.5190   -3.6810 H         1 MOL1        0.0547
     74  H30        -7.3240    9.4591   -2.1840 H         1 MOL1        0.0547
     75  H31       -10.7659   10.7071   -1.6800 H         1 MOL1        0.0529
     76  H32       -10.1501   11.8940   -3.1310 H         1 MOL1        0.0529
     77  H33       -10.4409   12.3638    0.1509 H         1 MOL1        0.0526
     78  H34       -11.4088   13.1469   -1.3421 H         1 MOL1        0.0526
     79  H35        -7.6111   13.1900   -0.0010 H         1 MOL1        0.0526
     80  H36        -7.2381   14.4069   -1.5090 H         1 MOL1        0.0526
     81  H37        -6.5860   11.9610   -2.0011 H         1 MOL1        0.0529
     82  H38        -7.9820   12.7270   -3.1741 H         1 MOL1        0.0529
     83  H39        -8.4760    9.4981   -7.8221 H         1 MOL1        0.0628
     84  H40        -7.7330    8.0949   -8.9470 H         1 MOL1        0.0628
     85  H          -2.8685   14.9617   -6.7483 H         1 MOL1        0.1921
     86  H          -8.5044   10.9214   -0.8862 H         1 MOL1        0.1922
@<TRIPOS>BOND
     1      1      2 1 
     2      2      3 2 
     3      2      4 2 
     4      2      5 1 
     5      5      6 1 
     6      5     44 1 
     7      6      7 1 
     8      7      8 1 
     9      8      9 ar
    10      8     12 ar
    11      9     10 ar
    12      9     44 1 
    13     10     11 ar
    14     10     23 1 
    15     11     12 ar
    16     12     13 1 
    17     13     14 1 
    18     14     15 1 
    19     14     22 1 
    20     15     16 1 
    21     16     17 1 
    22     16     21 1 
    23     17     18 1 
    24     18     19 1 
    25     19     20 1 
    26     20     21 1 
    27     23     24 ar
    28     23     28 ar
    29     24     25 ar
    30     25     26 ar
    31     26     27 ar
    32     26     40 1 
    33     27     28 ar
    34     27     29 1 
    35     29     30 1 
    36     30     31 1 
    37     31     32 1 
    38     32     33 1 
    39     32     37 1 
    40     33     34 1 
    41     34     35 1 
    42     35     36 1 
    43     35     38 1 
    44     35     39 1 
    45     36     37 1 
    46     40     41 1 
    47     40     42 1 
    48     40     43 1 
    49      1     46 1 
    50      1     47 1 
    51      1     48 1 
    52      6     49 1 
    53      6     50 1 
    54      7     51 1 
    55      7     52 1 
    56     13     53 1 
    57     13     54 1 
    58     14     45 1 
    59     15     55 1 
    60     15     56 1 
    61     16     85 1 
    62     17     57 1 
    63     17     58 1 
    64     18     59 1 
    65     18     60 1 
    66     19     61 1 
    67     19     62 1 
    68     20     63 1 
    69     20     64 1 
    70     21     65 1 
    71     21     66 1 
    72     22     67 1 
    73     24     68 1 
    74     25     69 1 
    75     28     70 1 
    76     30     71 1 
    77     30     72 1 
    78     31     73 1 
    79     31     74 1 
    80     32     86 1 
    81     33     75 1 
    82     33     76 1 
    83     34     77 1 
    84     34     78 1 
    85     36     79 1 
    86     36     80 1 
    87     37     81 1 
    88     37     82 1 
    89     44     83 1 
    90     44     84 1 
@<TRIPOS>SUBSTRUCTURE
     1 MOL1         1 MOLECULE          1 A
