# Molecule written by the XED library from Cresset
@<TRIPOS>MOLECULE
CatS_30
    92     96      1
SMALL
USER_CHARGES
@<TRIPOS>ATOM
      1  O1          2.2310   16.6400   -4.3390 C.3       1 MOL1       -0.0393
      2  C3          1.3871   17.6880   -4.5419 C.2       1 MOL1        0.2802
      3  O2          1.6510   18.7711   -4.0260 O.2       1 MOL1       -0.4214
      4  N1          0.2859   17.5010   -5.3040 N.am      1 MOL1       -0.3848
      5  C4         -0.1250   16.1701   -5.7828 C.3       1 MOL1        0.0939
      6  C5         -1.1911   15.5858   -4.8378 C.3       1 MOL1       -0.0601
      7  C6         -1.6670   14.2211   -5.3741 C.3       1 MOL1       -0.0596
      8  N2         -2.2338   14.3440   -6.7310 N.4       1 MOL1       -0.2306
      9  C7         -1.2229   14.8908   -7.6592 C.3       1 MOL1       -0.0596
     10  C8         -0.7220   16.2748   -7.1990 C.3       1 MOL1       -0.0601
     11  C9         -2.7051   13.0261   -7.1968 C.3       1 MOL1       -0.0600
     12  C10        -3.4130   13.0570   -8.5708 C.3       1 MOL1       -0.0608
     13  C11        -3.3400   11.6548   -9.2000 C.3       1 MOL1        0.0794
     14  N3         -4.3390   10.6961   -8.7089 N.pl3     1 MOL1       -0.0691
     15  C12        -5.5310   10.3250   -9.2409 C.ar      1 MOL1        0.0572
     16  C13        -6.2050    9.4821   -8.4579 C.ar      1 MOL1       -0.0684
     17  C14        -5.3401    9.2810   -7.3581 C.ar      1 MOL1        0.0392
     18  N4         -4.2649   10.0230   -7.5361 N.2       1 MOL1       -0.2943
     19  C15        -5.5280    8.4131   -6.2060 C.ar      1 MOL1       -0.0066
     20  C16        -4.4680    7.7389   -5.6279 C.ar      1 MOL1       -0.0846
     21  C17        -4.6601    6.9418   -4.5279 C.ar      1 MOL1       -0.0687
     22  C18        -5.9099    6.7701   -3.9697 C.ar      1 MOL1        0.0171
     23  C19        -6.9760    7.4399   -4.5580 C.ar      1 MOL1        0.0480
     24  C20        -6.7840    8.2540   -5.6508 C.ar      1 MOL1       -0.0655
     25  S1         -8.6621    7.2889   -3.9532 S.3       1 MOL1       -0.1783
     26  C21        -9.2131    8.9470   -3.4730 C.3       1 MOL1       -0.0088
     27  C22        -8.0199    9.8149   -3.0209 C.3       1 MOL1       -0.0441
     28  N5         -8.4072   10.8680   -2.0652 N.4       1 MOL1       -0.2286
     29  C23        -9.7688   11.3440   -2.3741 C.3       1 MOL1       -0.0630
     30  C24       -10.2311   12.4111   -1.3620 C.3       1 MOL1       -0.0834
     31  C25        -9.2441   13.5921   -1.3598 C.3       1 MOL1       -0.0872
     32  C26        -7.8200   13.0738   -1.0852 C.3       1 MOL1       -0.0834
     33  C27        -7.4531   11.9951   -2.1232 C.3       1 MOL1       -0.0630
     34  C28        -5.9452    5.8568   -2.7419 C.3       1 MOL1        0.4149
     35  F1         -4.9470    4.8880   -2.7811 F         1 MOL1       -0.1514
     36  F2         -7.1420    5.1660   -2.5929 F         1 MOL1       -0.1514
     37  F3         -5.7382    6.5909   -1.5781 F         1 MOL1       -0.1514
     38  C29        -7.5841    8.9491   -8.8240 C.3       1 MOL1        0.1169
     39  N6         -8.2562    9.7460   -9.8749 N.3       1 MOL1       -0.4606
     40  C30        -7.3181    9.9450  -11.0011 C.3       1 MOL1        0.0844
     41  C31        -6.0940   10.7930  -10.5731 C.3       1 MOL1       -0.0158
     42  S2         -9.7909    9.3099  -10.1699 S.3       1 MOL1        0.4316
     43  O3         -9.8659    7.9421   -9.7660 O.2       1 MOL1       -0.3139
     44  O4        -10.0691    9.5799  -11.5451 O.2       1 MOL1       -0.3139
     45  C32       -10.9189   10.2890   -9.1311 C.3       1 MOL1        0.0421
     46  H6         -0.2091   18.2001   -5.5070 H         1 MOL1        0.2040
     47  H7          0.8140   15.4248   -5.8332 H         1 MOL1        0.0615
     48  H8         -0.7248   15.4541   -3.7392 H         1 MOL1        0.0483
     49  H9         -2.1312   16.3299   -4.7860 H         1 MOL1        0.0483
     50  H10        -2.5059   13.8240   -4.6130 H         1 MOL1        0.0528
     51  H11        -0.7429   13.4542   -5.3879 H         1 MOL1        0.0528
     52  H12        -1.7001   15.0322   -8.7500 H         1 MOL1        0.0528
     53  H13        -0.2800   14.1499   -7.7228 H         1 MOL1        0.0528
     54  H14         0.1170   16.6709   -7.9592 H         1 MOL1        0.0483
     55  H15        -1.6449   17.0419   -7.1910 H         1 MOL1        0.0483
     56  H16        -3.5301   12.6210   -6.4258 H         1 MOL1        0.0528
     57  H17        -1.8130   12.2241   -7.2249 H         1 MOL1        0.0528
     58  H18        -4.5660   13.3630   -8.4239 H         1 MOL1        0.0480
     59  H19        -2.8850   13.8320   -9.3198 H         1 MOL1        0.0480
     60  H20        -3.4750   11.7689  -10.3871 H         1 MOL1        0.0605
     61  H21        -2.2548   11.1929   -8.9839 H         1 MOL1        0.0605
     62  H22        -3.5491    7.8379   -6.0089 H         1 MOL1        0.0910
     63  H23        -3.8722    6.4760   -4.1252 H         1 MOL1        0.0908
     64  H24        -7.5650    8.7319   -6.0519 H         1 MOL1        0.0929
     65  H25        -9.7311    9.4500   -4.4321 H         1 MOL1        0.0553
     66  H26       -10.0248    8.8690   -2.5919 H         1 MOL1        0.0553
     67  H27        -7.5952   10.3441   -4.0119 H         1 MOL1        0.0547
     68  H28        -7.1412    9.1330   -2.5669 H         1 MOL1        0.0547
     69  H29       -10.5490   10.4350   -2.3161 H         1 MOL1        0.0528
     70  H30        -9.7886   11.8009   -3.4842 H         1 MOL1        0.0528
     71  H31       -10.2648   11.9169   -0.2701 H         1 MOL1        0.0467
     72  H32       -11.3258   12.8009   -1.6600 H         1 MOL1        0.0467
     73  H33        -9.5602   14.3840   -0.5172 H         1 MOL1        0.0460
     74  H34        -9.2640   14.1291   -2.4330 H         1 MOL1        0.0460
     75  H35        -7.0417   13.9839   -1.1570 H         1 MOL1        0.0467
     76  H36        -7.7741   12.5988    0.0151 H         1 MOL1        0.0467
     77  H37        -7.4590   12.4810   -3.2211 H         1 MOL1        0.0528
     78  H38        -6.3400   11.6219   -1.8750 H         1 MOL1        0.0528
     79  H39        -7.4860    7.8080   -9.1821 H         1 MOL1        0.0628
     80  H40        -8.2801    8.9950   -7.8461 H         1 MOL1        0.0628
     81  H41        -6.9428    8.8781  -11.4010 H         1 MOL1        0.0601
     82  H42        -7.8698   10.5230  -11.8949 H         1 MOL1        0.0601
     83  H43        -6.4269   11.9410  -10.4690 H         1 MOL1        0.0516
     84  H44        -5.2560   10.6982  -11.4260 H         1 MOL1        0.0516
     85  H45       -11.0140   11.4132   -9.5422 H         1 MOL1        0.0588
     86  H46       -12.0139    9.7990   -9.1410 H         1 MOL1        0.0588
     87  H47       -10.5202   10.3161   -7.9992 H         1 MOL1        0.0588
     88  H           3.2531   16.9827   -4.4054 H         1 MOL1        0.0501
     89  H           2.0551   16.2202   -3.3596 H         1 MOL1        0.0501
     90  H           2.0551   15.8849   -5.0909 H         1 MOL1        0.0501
     91  H          -2.9459   14.9138   -6.7055 H         1 MOL1        0.1913
     92  H          -8.4054   10.5164   -1.2236 H         1 MOL1        0.1920
@<TRIPOS>BOND
     1      1      2 1 
     2      2      3 2 
     3      2      4 am
     4      4      5 1 
     5      5      6 1 
     6      5     10 1 
     7      6      7 1 
     8      7      8 1 
     9      8      9 1 
    10      8     11 1 
    11      9     10 1 
    12     11     12 1 
    13     12     13 1 
    14     13     14 1 
    15     14     15 ar
    16     14     18 ar
    17     15     16 ar
    18     15     41 1 
    19     16     17 ar
    20     16     38 1 
    21     17     18 ar
    22     17     19 1 
    23     19     20 ar
    24     19     24 ar
    25     20     21 ar
    26     21     22 ar
    27     22     23 ar
    28     22     34 1 
    29     23     24 ar
    30     23     25 1 
    31     25     26 1 
    32     26     27 1 
    33     27     28 1 
    34     28     29 1 
    35     28     33 1 
    36     29     30 1 
    37     30     31 1 
    38     31     32 1 
    39     32     33 1 
    40     34     35 1 
    41     34     36 1 
    42     34     37 1 
    43     38     39 1 
    44     39     40 1 
    45     39     42 1 
    46     40     41 1 
    47     42     43 2 
    48     42     44 2 
    49     42     45 1 
    50      4     46 1 
    51      5     47 1 
    52      6     48 1 
    53      6     49 1 
    54      7     50 1 
    55      7     51 1 
    56      9     52 1 
    57      9     53 1 
    58     10     54 1 
    59     10     55 1 
    60     11     56 1 
    61     11     57 1 
    62     12     58 1 
    63     12     59 1 
    64     13     60 1 
    65     13     61 1 
    66     20     62 1 
    67     21     63 1 
    68     24     64 1 
    69     26     65 1 
    70     26     66 1 
    71     27     67 1 
    72     27     68 1 
    73     29     69 1 
    74     29     70 1 
    75     30     71 1 
    76     30     72 1 
    77     31     73 1 
    78     31     74 1 
    79     32     75 1 
    80     32     76 1 
    81     33     77 1 
    82     33     78 1 
    83     38     79 1 
    84     38     80 1 
    85     40     81 1 
    86     40     82 1 
    87     41     83 1 
    88     41     84 1 
    89     45     85 1 
    90     45     86 1 
    91     45     87 1 
    92     88      1 1 
    93     89      1 1 
    94     90      1 1 
    95     91      8 1 
    96     92     28 1 
@<TRIPOS>SUBSTRUCTURE
     1 MOL1         1 MOLECULE          1 A
