CatS_84
 OpenBabel05281909343D

 87 91  0  0  1  0  0  0  0  0999 V2000
   -9.3131   13.6159   -0.9780 C   0  0  1  0  0  0  0  0  0  0  0  0
   -7.8910   13.0829   -0.9750 C   0  0  0  0  0  0  0  0  0  0  0  0
   -7.6840   12.0019   -2.0259 C   0  0  0  0  0  0  0  0  0  0  0  0
   -8.6210   10.8950   -1.8360 N   0  3  1  0  0  0  0  0  0  0  0  0
   -9.9870   11.3970   -1.9841 C   0  0  0  0  0  0  0  0  0  0  0  0
  -10.2920   12.4520   -0.9239 C   0  0  0  0  0  0  0  0  0  0  0  0
   -8.3719    9.8092   -2.8120 C   0  0  0  0  0  0  0  0  0  0  0  0
   -9.4880    8.7999   -3.1769 C   0  0  0  0  0  0  0  0  0  0  0  0
   -8.5651    7.3151   -3.6839 S   0  0  0  0  0  0  0  0  0  0  0  0
   -6.9100    7.4770   -4.3939 C   0  0  0  0  0  0  0  0  0  0  0  0
   -6.7381    8.2809   -5.5031 C   0  0  0  0  0  0  0  0  0  0  0  0
   -5.5170    8.3460   -6.1690 C   0  0  0  0  0  0  0  0  0  0  0  0
   -4.4809    7.5702   -5.6800 C   0  0  0  0  0  0  0  0  0  0  0  0
   -4.6410    6.7928   -4.5618 C   0  0  0  0  0  0  0  0  0  0  0  0
   -5.8429    6.7389   -3.8889 C   0  0  0  0  0  0  0  0  0  0  0  0
   -5.8459    5.8240   -2.6610 C   0  0  0  0  0  0  0  0  0  0  0  0
   -7.0400    5.1280   -2.5139 F   0  0  0  0  0  0  0  0  0  0  0  0
   -5.6640    6.5240   -1.4689 F   0  0  0  0  0  0  0  0  0  0  0  0
   -4.8230    4.8860   -2.7361 F   0  0  0  0  0  0  0  0  0  0  0  0
   -5.3260    9.1920   -7.3410 C   0  0  0  0  0  0  0  0  0  0  0  0
   -6.2171    9.4949   -8.4121 C   0  0  0  0  0  0  0  0  0  0  0  0
   -5.4951   10.3039   -9.1871 C   0  0  0  0  0  0  0  0  0  0  0  0
   -4.2530   10.5370   -8.7059 N   0  0  0  0  0  0  0  0  0  0  0  0
   -4.1921    9.8339   -7.5540 N   0  0  0  0  0  0  0  0  0  0  0  0
   -3.1970   11.4171   -9.2430 C   0  0  0  0  0  0  0  0  0  0  0  0
   -3.1081   12.8812   -8.7670 C   0  0  2  0  0  0  0  0  0  0  0  0
   -2.6012   12.9100   -7.3040 C   0  0  0  0  0  0  0  0  0  0  0  0
   -2.1099   14.2229   -6.8310 N   0  3  2  0  0  0  0  0  0  0  0  0
   -1.1789   14.8031   -7.8140 C   0  0  0  0  0  0  0  0  0  0  0  0
   -0.7930   16.2411   -7.4112 C   0  0  0  0  0  0  0  0  0  0  0  0
   -0.2260   16.3490   -5.9719 C   0  0  0  0  0  0  0  0  0  0  0  0
   -1.0422   15.4830   -4.9741 C   0  0  2  0  0  0  0  0  0  0  0  0
   -1.4459   14.0971   -5.5230 C   0  0  0  0  0  0  0  0  0  0  0  0
   -4.4001   13.5001   -8.8310 O   0  0  0  0  0  0  0  0  0  0  0  0
   -6.0391   10.9018  -10.4651 C   0  0  0  0  0  0  0  0  0  0  0  0
   -7.5812   10.9049  -10.4300 C   0  0  0  0  0  0  0  0  0  0  0  0
   -8.1200    9.5691  -10.1281 N   0  0  0  0  0  0  0  0  0  0  0  0
   -7.6691    9.1481   -8.7730 C   0  0  0  0  0  0  0  0  0  0  0  0
   -9.7001    9.4121  -10.5199 S   0  0  0  0  0  0  0  0  0  0  0  0
   -9.9520    8.0258  -10.2969 O   0  0  0  0  0  0  0  0  0  0  0  0
   -9.6782    9.7131  -11.9149 O   0  0  0  0  0  0  0  0  0  0  0  0
  -11.2710   10.1641  -10.0209 C   0  0  0  0  0  0  0  0  0  0  0  0
   -9.5020   14.3071   -0.0201 F   0  0  0  0  0  0  0  0  0  0  0  0
   -2.0600   16.0551   -4.6929 O   0  0  0  0  0  0  0  0  0  0  0  0
   -9.5969   14.4460   -2.2411 H   0  0  0  0  0  0  0  0  0  0  0  0
   -2.3332   13.4769   -9.4643 H   0  0  0  0  0  0  0  0  0  0  0  0
   -7.1320   13.9869   -1.1890 H   0  0  0  0  0  0  0  0  0  0  0  0
   -7.6450   12.6350    0.1139 H   0  0  0  0  0  0  0  0  0  0  0  0
   -7.8932   12.5042   -3.0931 H   0  0  0  0  0  0  0  0  0  0  0  0
   -6.5450   11.6290   -1.9449 H   0  0  0  0  0  0  0  0  0  0  0  0
  -10.7290   10.4591   -1.9001 H   0  0  0  0  0  0  0  0  0  0  0  0
  -10.1611   11.8832   -3.0670 H   0  0  0  0  0  0  0  0  0  0  0  0
  -11.3848   12.9120   -1.1320 H   0  0  0  0  0  0  0  0  0  0  0  0
  -10.2428   11.9522    0.1691 H   0  0  0  0  0  0  0  0  0  0  0  0
   -8.1079   10.3270   -3.8641 H   0  0  0  0  0  0  0  0  0  0  0  0
   -7.4139    9.1769   -2.4628 H   0  0  0  0  0  0  0  0  0  0  0  0
  -10.1799    8.5311   -2.2341 H   0  0  0  0  0  0  0  0  0  0  0  0
  -10.1570    9.2301   -4.0750 H   0  0  0  0  0  0  0  0  0  0  0  0
   -7.5111    8.8150   -5.8479 H   0  0  0  0  0  0  0  0  0  0  0  0
   -3.5969    7.5779   -6.1429 H   0  0  0  0  0  0  0  0  0  0  0  0
   -3.8670    6.2519   -4.2318 H   0  0  0  0  0  0  0  0  0  0  0  0
   -2.1419   10.8940   -8.9968 H   0  0  0  0  0  0  0  0  0  0  0  0
   -3.3480   11.4211  -10.4369 H   0  0  0  0  0  0  0  0  0  0  0  0
   -3.4730   12.5371   -6.5719 H   0  0  0  0  0  0  0  0  0  0  0  0
   -1.6929   12.1311   -7.2131 H   0  0  0  0  0  0  0  0  0  0  0  0
   -0.2039   14.1150   -7.8829 H   0  0  0  0  0  0  0  0  0  0  0  0
   -1.6789   14.8459   -8.9048 H   0  0  0  0  0  0  0  0  0  0  0  0
   -1.7920   16.8950   -7.4839 H   0  0  0  0  0  0  0  0  0  0  0  0
   -0.0091   16.6811   -8.2012 H   0  0  0  0  0  0  0  0  0  0  0  0
   -0.4121   15.3249   -3.9650 H   0  0  0  0  0  0  0  0  0  0  0  0
   -0.4751   13.4030   -5.6278 H   0  0  0  0  0  0  0  0  0  0  0  0
   -2.2010   13.6001   -4.7342 H   0  0  0  0  0  0  0  0  0  0  0  0
   -4.7332   13.5390   -9.7801 H   0  0  0  0  0  0  0  0  0  0  0  0
   -5.6771   10.2310  -11.3910 H   0  0  0  0  0  0  0  0  0  0  0  0
   -5.6340   12.0220  -10.6050 H   0  0  0  0  0  0  0  0  0  0  0  0
   -7.9751   11.2631  -11.5031 H   0  0  0  0  0  0  0  0  0  0  0  0
   -7.9638   11.6829   -9.5998 H   0  0  0  0  0  0  0  0  0  0  0  0
   -8.3820    9.6720   -7.9630 H   0  0  0  0  0  0  0  0  0  0  0  0
   -7.8331    7.9640   -8.7271 H   0  0  0  0  0  0  0  0  0  0  0  0
  -11.4819    9.9382   -8.8621 H   0  0  0  0  0  0  0  0  0  0  0  0
  -11.2149   11.3503  -10.1951 H   0  0  0  0  0  0  0  0  0  0  0  0
  -12.1608    9.7090  -10.6871 H   0  0  0  0  0  0  0  0  0  0  0  0
   -8.5214   10.5575   -0.9942 H   0  0  0  0  0  0  0  0  0  0  0  0
   -2.8268   14.7812   -6.7525 H   0  0  0  0  0  0  0  0  0  0  0  0
    0.8994   15.9330   -5.9869 H   0  0  0  0  0  0  0  0  0  0  0  0
   -0.2157   17.4944   -5.6145 H   0  0  0  0  0  0  0  0  0  0  0  0
   -2.5894   15.5461   -4.0054 H   0  0  0  0  0  0  0  0  0  0  0  0
  1  2  1  0  0  0  0
  1  6  1  0  0  0  0
  1 43  1  0  0  0  0
  1 45  1  6  0  0  0
  2  3  1  0  0  0  0
  2 47  1  0  0  0  0
  2 48  1  0  0  0  0
  3  4  1  0  0  0  0
  3 49  1  0  0  0  0
  3 50  1  0  0  0  0
  4  5  1  0  0  0  0
  4  7  1  0  0  0  0
  4 83  1  1  0  0  0
  5  6  1  0  0  0  0
  5 51  1  0  0  0  0
  5 52  1  0  0  0  0
  6 53  1  0  0  0  0
  6 54  1  0  0  0  0
  7  8  1  0  0  0  0
  7 55  1  0  0  0  0
  7 56  1  0  0  0  0
  8  9  1  0  0  0  0
  8 57  1  0  0  0  0
  8 58  1  0  0  0  0
  9 10  1  0  0  0  0
 10 11  2  0  0  0  0
 10 15  1  0  0  0  0
 11 12  1  0  0  0  0
 11 59  1  0  0  0  0
 12 13  2  0  0  0  0
 12 20  1  0  0  0  0
 13 14  1  0  0  0  0
 13 60  1  0  0  0  0
 14 15  2  0  0  0  0
 14 61  1  0  0  0  0
 15 16  1  0  0  0  0
 16 17  1  0  0  0  0
 16 18  1  0  0  0  0
 16 19  1  0  0  0  0
 20 21  1  0  0  0  0
 20 24  2  0  0  0  0
 21 22  2  0  0  0  0
 21 38  1  0  0  0  0
 22 23  1  0  0  0  0
 22 35  1  0  0  0  0
 23 24  1  0  0  0  0
 23 25  1  0  0  0  0
 25 26  1  0  0  0  0
 25 62  1  0  0  0  0
 25 63  1  0  0  0  0
 26 27  1  0  0  0  0
 26 34  1  0  0  0  0
 26 46  1  6  0  0  0
 27 28  1  0  0  0  0
 27 64  1  0  0  0  0
 27 65  1  0  0  0  0
 28 29  1  0  0  0  0
 28 33  1  0  0  0  0
 28 84  1  1  0  0  0
 29 30  1  0  0  0  0
 29 66  1  0  0  0  0
 29 67  1  0  0  0  0
 30 31  1  0  0  0  0
 30 68  1  0  0  0  0
 30 69  1  0  0  0  0
 31 32  1  0  0  0  0
 32 33  1  0  0  0  0
 32 44  1  0  0  0  0
 32 70  1  1  0  0  0
 33 71  1  0  0  0  0
 33 72  1  0  0  0  0
 34 73  1  0  0  0  0
 35 36  1  0  0  0  0
 35 74  1  0  0  0  0
 35 75  1  0  0  0  0
 36 37  1  0  0  0  0
 36 76  1  0  0  0  0
 36 77  1  0  0  0  0
 37 38  1  0  0  0  0
 37 39  1  0  0  0  0
 38 78  1  0  0  0  0
 38 79  1  0  0  0  0
 39 40  2  0  0  0  0
 39 41  2  0  0  0  0
 39 42  1  0  0  0  0
 42 80  1  0  0  0  0
 42 81  1  0  0  0  0
 42 82  1  0  0  0  0
 85 31  1  0  0  0  0
 86 31  1  0  0  0  0
 87 44  1  0  0  0  0
M  CHG  2   4   1  28   1
M  END
$$$$
