# Molecule written by the XED library from Cresset
@<TRIPOS>MOLECULE
CatS_191
   100    104      1
SMALL
USER_CHARGES
@<TRIPOS>ATOM
      1  C2          3.4299   16.9052   -3.5878 O.3       1 MOL1       -0.4307
      2  O1          2.2311   16.6401   -4.3390 C.3       1 MOL1        0.0618
      3  C3          1.3873   17.6878   -4.5419 C.2       1 MOL1        0.2988
      4  O2          1.6511   18.7710   -4.0260 O.2       1 MOL1       -0.4164
      5  N1          0.2858   17.5008   -5.3039 N.am      1 MOL1       -0.3839
      6  C4         -0.1250   16.1702   -5.7827 C.3       1 MOL1        0.0940
      7  C5         -1.1909   15.5860   -4.8378 C.3       1 MOL1       -0.0600
      8  C6         -1.6668   14.2211   -5.3740 C.3       1 MOL1       -0.0594
      9  N2         -2.2341   14.3440   -6.7309 N.4       1 MOL1       -0.2281
     10  C7         -1.2230   14.8909   -7.6589 C.3       1 MOL1       -0.0594
     11  C8         -0.7217   16.2749   -7.1991 C.3       1 MOL1       -0.0600
     12  C9         -2.7049   13.0259   -7.1970 C.3       1 MOL1       -0.0328
     13  C10        -3.4130   13.0570   -8.5707 C.3       1 MOL1        0.0191
     14  C11        -3.3400   11.6550   -9.2000 C.3       1 MOL1        0.0979
     15  N3         -4.3389   10.6962   -8.7089 N.pl3     1 MOL1       -0.0670
     16  C12        -5.5311   10.3251   -9.2410 C.ar      1 MOL1        0.0572
     17  C13        -6.2051    9.4822   -8.4578 C.ar      1 MOL1       -0.0684
     18  C14        -5.3400    9.2811   -7.3580 C.ar      1 MOL1        0.0392
     19  N4         -4.2648   10.0229   -7.5359 N.2       1 MOL1       -0.2943
     20  C15        -5.5280    8.4131   -6.2060 C.ar      1 MOL1       -0.0066
     21  C16        -4.4679    7.7390   -5.6282 C.ar      1 MOL1       -0.0846
     22  C17        -4.6602    6.9418   -4.5280 C.ar      1 MOL1       -0.0687
     23  C18        -5.9100    6.7699   -3.9699 C.ar      1 MOL1        0.0171
     24  C19        -6.9760    7.4400   -4.5579 C.ar      1 MOL1        0.0480
     25  C20        -6.7839    8.2539   -5.6508 C.ar      1 MOL1       -0.0655
     26  S1         -8.6622    7.2889   -3.9531 S.3       1 MOL1       -0.1783
     27  C21        -9.2129    8.9470   -3.4731 C.3       1 MOL1       -0.0087
     28  C22        -8.0199    9.8151   -3.0207 C.3       1 MOL1       -0.0441
     29  N5         -8.4070   10.8680   -2.0652 N.4       1 MOL1       -0.2286
     30  C23        -9.7689   11.3443   -2.3740 C.3       1 MOL1       -0.0625
     31  C24       -10.2310   12.4112   -1.3618 C.3       1 MOL1       -0.0797
     32  C25        -9.2441   13.5921   -1.3601 C.3       1 MOL1       -0.0638
     33  C26        -7.8200   13.0742   -1.0854 C.3       1 MOL1       -0.0797
     34  C27        -7.4528   11.9950   -2.1232 C.3       1 MOL1       -0.0625
     35  C28        -5.9452    5.8569   -2.7421 C.3       1 MOL1        0.4149
     36  F1         -4.9473    4.8879   -2.7811 F         1 MOL1       -0.1514
     37  F2         -7.1419    5.1659   -2.5931 F         1 MOL1       -0.1514
     38  F3         -5.7381    6.5909   -1.5779 F         1 MOL1       -0.1514
     39  C29        -7.5842    8.9492   -8.8238 C.3       1 MOL1        0.1169
     40  N6         -8.2563    9.7461   -9.8749 N.3       1 MOL1       -0.4606
     41  C30        -7.3179    9.9450  -11.0011 C.3       1 MOL1        0.0844
     42  C31        -6.0941   10.7930  -10.5731 C.3       1 MOL1       -0.0158
     43  S2         -9.7909    9.3101  -10.1698 S.3       1 MOL1        0.4316
     44  O3         -9.8660    7.9421   -9.7661 O.2       1 MOL1       -0.3139
     45  O4        -10.0691    9.5800  -11.5448 O.2       1 MOL1       -0.3139
     46  C32       -10.9189   10.2888   -9.1312 C.3       1 MOL1        0.0421
     47  H33        -9.5603   14.3844   -0.5171 C.3       1 MOL1       -0.1200
     48  H18        -4.5660   13.3629   -8.4241 O.3       1 MOL1       -0.4408
     49  H           1.6568   15.7426   -3.7878 C.3       1 MOL1       -0.0828
     50  H           2.6305   16.3063   -5.4208 H         1 MOL1        0.0719
     51  H19        -2.8851   13.8321   -9.3199 H         1 MOL1        0.0680
     52  H6         -0.2092   18.1997   -5.5072 H         1 MOL1        0.2040
     53  H7          0.8141   15.4249   -5.8330 H         1 MOL1        0.0615
     54  H8         -0.7250   15.4541   -3.7393 H         1 MOL1        0.0483
     55  H9         -2.1310   16.3303   -4.7860 H         1 MOL1        0.0483
     56  H10        -2.5058   13.8239   -4.6130 H         1 MOL1        0.0529
     57  H11        -0.7431   13.4541   -5.3879 H         1 MOL1        0.0529
     58  H12        -1.7002   15.0319   -8.7503 H         1 MOL1        0.0529
     59  H13        -0.2802   14.1500   -7.7231 H         1 MOL1        0.0529
     60  H14         0.1171   16.6711   -7.9589 H         1 MOL1        0.0483
     61  H15        -1.6451   17.0419   -7.1907 H         1 MOL1        0.0483
     62  H16        -3.5303   12.6210   -6.4259 H         1 MOL1        0.0549
     63  H17        -1.8130   12.2241   -7.2249 H         1 MOL1        0.0549
     64  H20        -3.4749   11.7691  -10.3871 H         1 MOL1        0.0624
     65  H21        -2.2549   11.1928   -8.9840 H         1 MOL1        0.0624
     66  H22        -3.5488    7.8379   -6.0090 H         1 MOL1        0.0910
     67  H23        -3.8723    6.4761   -4.1252 H         1 MOL1        0.0908
     68  H24        -7.5647    8.7320   -6.0520 H         1 MOL1        0.0929
     69  H25        -9.7312    9.4502   -4.4322 H         1 MOL1        0.0553
     70  H26       -10.0246    8.8693   -2.5917 H         1 MOL1        0.0553
     71  H27        -7.5952   10.3442   -4.0121 H         1 MOL1        0.0547
     72  H28        -7.1409    9.1330   -2.5670 H         1 MOL1        0.0547
     73  H29       -10.5490   10.4350   -2.3161 H         1 MOL1        0.0528
     74  H30        -9.7887   11.8011   -3.4842 H         1 MOL1        0.0528
     75  H31       -10.2649   11.9170   -0.2703 H         1 MOL1        0.0470
     76  H32       -11.3259   12.8009   -1.6600 H         1 MOL1        0.0470
     77  H34        -9.2641   14.1292   -2.4331 H         1 MOL1        0.0485
     78  H35        -7.0417   13.9839   -1.1569 H         1 MOL1        0.0470
     79  H36        -7.7741   12.5990    0.0150 H         1 MOL1        0.0470
     80  H37        -7.4589   12.4813   -3.2211 H         1 MOL1        0.0528
     81  H38        -6.3402   11.6220   -1.8749 H         1 MOL1        0.0528
     82  H39        -7.4863    7.8082   -9.1820 H         1 MOL1        0.0628
     83  H40        -8.2802    8.9949   -7.8461 H         1 MOL1        0.0628
     84  H41        -6.9430    8.8780  -11.4009 H         1 MOL1        0.0601
     85  H42        -7.8699   10.5229  -11.8951 H         1 MOL1        0.0601
     86  H43        -6.4269   11.9411  -10.4689 H         1 MOL1        0.0516
     87  H44        -5.2558   10.6983  -11.4264 H         1 MOL1        0.0516
     88  H45       -11.0142   11.4132   -9.5421 H         1 MOL1        0.0588
     89  H46       -12.0136    9.7990   -9.1409 H         1 MOL1        0.0588
     90  H47       -10.5201   10.3161   -7.9991 H         1 MOL1        0.0588
     91  H          -2.9464   14.9138   -6.7055 H         1 MOL1        0.1922
     92  H          -8.4056   10.5165   -1.2231 H         1 MOL1        0.1920
     93  H           4.0017   16.0808   -3.5081 H         1 MOL1        0.3291
     94  H         -10.6624   14.8194   -0.7188 H         1 MOL1        0.0435
     95  H          -9.5551   13.9284    0.5949 H         1 MOL1        0.0435
     96  H          -8.8248   15.3349   -0.5158 H         1 MOL1        0.0435
     97  H          -5.0607   13.3556   -9.2998 H         1 MOL1        0.3291
     98  H           0.8712   16.2276   -3.0226 H         1 MOL1        0.0457
     99  H           2.4000   15.2793   -2.9668 H         1 MOL1        0.0457
    100  H           1.3782   14.6764   -4.2640 H         1 MOL1        0.0457
@<TRIPOS>BOND
     1      2      1 1 
     2      2     49 1 
     3      3      2 1 
     4      4      3 2 
     5      5      3 am
     6      6      5 1 
     7      7      6 1 
     8      8      7 1 
     9      9      8 1 
    10     10      9 1 
    11     11      6 1 
    12     11     10 1 
    13     12      9 1 
    14     13     12 1 
    15     14     13 1 
    16     15     14 1 
    17     16     15 ar
    18     17     16 ar
    19     18     17 ar
    20     19     15 ar
    21     19     18 ar
    22     20     18 1 
    23     21     20 ar
    24     22     21 ar
    25     23     22 ar
    26     24     23 ar
    27     25     20 ar
    28     25     24 ar
    29     26     24 1 
    30     27     26 1 
    31     28     27 1 
    32     29     28 1 
    33     30     29 1 
    34     31     30 1 
    35     32     31 1 
    36     33     32 1 
    37     34     29 1 
    38     34     33 1 
    39     35     23 1 
    40     36     35 1 
    41     37     35 1 
    42     38     35 1 
    43     39     17 1 
    44     40     39 1 
    45     41     40 1 
    46     42     16 1 
    47     42     41 1 
    48     43     40 1 
    49     44     43 2 
    50     45     43 2 
    51     46     43 1 
    52     47     32 1 
    53     48     13 1 
    54      1     93 1 
    55      2     50 1 
    56     47     94 1 
    57     47     95 1 
    58     47     96 1 
    59     49     98 1 
    60     49     99 1 
    61     49    100 1 
    62     51     13 1 
    63     52      5 1 
    64     53      6 1 
    65     54      7 1 
    66     55      7 1 
    67     56      8 1 
    68     57      8 1 
    69     58     10 1 
    70     59     10 1 
    71     60     11 1 
    72     61     11 1 
    73     62     12 1 
    74     63     12 1 
    75     64     14 1 
    76     65     14 1 
    77     66     21 1 
    78     67     22 1 
    79     68     25 1 
    80     69     27 1 
    81     70     27 1 
    82     71     28 1 
    83     72     28 1 
    84     73     30 1 
    85     74     30 1 
    86     75     31 1 
    87     76     31 1 
    88     77     32 1 
    89     78     33 1 
    90     79     33 1 
    91     80     34 1 
    92     81     34 1 
    93     82     39 1 
    94     83     39 1 
    95     84     41 1 
    96     85     41 1 
    97     86     42 1 
    98     87     42 1 
    99     88     46 1 
   100     89     46 1 
   101     90     46 1 
   102     91      9 1 
   103     92     29 1 
   104     97     48 1 
@<TRIPOS>SUBSTRUCTURE
     1 MOL1         1 MOLECULE          1 A
