# Molecule written by the XED library from Cresset
@<TRIPOS>MOLECULE
CatS_180
    98    102      1
SMALL
USER_CHARGES
@<TRIPOS>ATOM
      1  C3          1.3872   17.6877   -4.5417 C.3       1 MOL1       -0.1161
      2  N1          0.2860   17.5009   -5.3040 C.3       1 MOL1       -0.0490
      3  C4         -0.1247   16.1700   -5.7829 C.3       1 MOL1       -0.0536
      4  C5         -1.1910   15.5856   -4.8380 C.3       1 MOL1       -0.0783
      5  C6         -1.6666   14.2213   -5.3739 C.3       1 MOL1       -0.0624
      6  N2         -2.2338   14.3439   -6.7311 N.4       1 MOL1       -0.2282
      7  C7         -1.2232   14.8906   -7.6590 C.3       1 MOL1       -0.0624
      8  C8         -0.7220   16.2748   -7.1989 C.3       1 MOL1       -0.0783
      9  C9         -2.7051   13.0260   -7.1970 C.3       1 MOL1       -0.0328
     10  C10        -3.4128   13.0569   -8.5710 C.3       1 MOL1        0.0191
     11  C11        -3.3396   11.6550   -9.2001 C.3       1 MOL1        0.0979
     12  N3         -4.3391   10.6962   -8.7088 N.pl3     1 MOL1       -0.0670
     13  C12        -5.5312   10.3252   -9.2408 C.ar      1 MOL1        0.0572
     14  C13        -6.2050    9.4820   -8.4580 C.ar      1 MOL1       -0.0684
     15  C14        -5.3398    9.2806   -7.3581 C.ar      1 MOL1        0.0392
     16  N4         -4.2647   10.0228   -7.5359 N.2       1 MOL1       -0.2943
     17  C15        -5.5280    8.4130   -6.2061 C.ar      1 MOL1       -0.0066
     18  C16        -4.4678    7.7390   -5.6280 C.ar      1 MOL1       -0.0846
     19  C17        -4.6602    6.9420   -4.5283 C.ar      1 MOL1       -0.0687
     20  C18        -5.9101    6.7701   -3.9698 C.ar      1 MOL1        0.0171
     21  C19        -6.9758    7.4400   -4.5581 C.ar      1 MOL1        0.0480
     22  C20        -6.7839    8.2539   -5.6506 C.ar      1 MOL1       -0.0655
     23  S1         -8.6623    7.2888   -3.9530 S.3       1 MOL1       -0.1783
     24  C21        -9.2129    8.9468   -3.4728 C.3       1 MOL1       -0.0087
     25  C22        -8.0196    9.8151   -3.0206 C.3       1 MOL1       -0.0441
     26  N5         -8.4071   10.8677   -2.0651 N.4       1 MOL1       -0.2282
     27  C23        -9.7687   11.3441   -2.3741 C.3       1 MOL1       -0.0507
     28  C24       -10.2311   12.4112   -1.3620 C.3       1 MOL1       -0.0181
     29  C25        -9.2440   13.5920   -1.3597 C.3       1 MOL1        0.1870
     30  C26        -7.8200   13.0741   -1.0855 C.3       1 MOL1       -0.0181
     31  C27        -7.4531   11.9950   -2.1229 C.3       1 MOL1       -0.0507
     32  C28        -5.9449    5.8567   -2.7422 C.3       1 MOL1        0.4149
     33  F1         -4.9474    4.8881   -2.7812 F         1 MOL1       -0.1514
     34  F2         -7.1417    5.1657   -2.5931 F         1 MOL1       -0.1514
     35  F3         -5.7382    6.5910   -1.5779 F         1 MOL1       -0.1514
     36  C29        -7.5839    8.9488   -8.8236 C.3       1 MOL1        0.1169
     37  N6         -8.2564    9.7459   -9.8748 N.3       1 MOL1       -0.4606
     38  C30        -7.3181    9.9448  -11.0011 C.3       1 MOL1        0.0844
     39  C31        -6.0939   10.7930  -10.5729 C.3       1 MOL1       -0.0158
     40  S2         -9.7911    9.3101  -10.1697 S.3       1 MOL1        0.4316
     41  O3         -9.8659    7.9422   -9.7664 O.2       1 MOL1       -0.3139
     42  O4        -10.0690    9.5799  -11.5450 O.2       1 MOL1       -0.3139
     43  C32       -10.9188   10.2892   -9.1312 C.3       1 MOL1        0.0421
     44  H33        -9.5602   14.3841   -0.5171 F         1 MOL1       -0.1808
     45  H          -0.6190   18.0803   -4.7687 C.3       1 MOL1       -0.1161
     46  H34        -9.2641   14.1291   -2.4330 F         1 MOL1       -0.1808
     47  H           0.4903   18.1898   -6.2668 C.3       1 MOL1       -0.1161
     48  H18        -4.5657   13.3631   -8.4239 O.3       1 MOL1       -0.4408
     49  H19        -2.8848   13.8323   -9.3198 H         1 MOL1        0.0680
     50  H7          0.8141   15.4250   -5.8328 H         1 MOL1        0.0492
     51  H8         -0.7250   15.4541   -3.7393 H         1 MOL1        0.0470
     52  H9         -2.1309   16.3302   -4.7859 H         1 MOL1        0.0470
     53  H10        -2.5058   13.8239   -4.6130 H         1 MOL1        0.0529
     54  H11        -0.7427   13.4540   -5.3879 H         1 MOL1        0.0529
     55  H12        -1.7002   15.0320   -8.7498 H         1 MOL1        0.0529
     56  H13        -0.2801   14.1498   -7.7231 H         1 MOL1        0.0529
     57  H14         0.1169   16.6711   -7.9590 H         1 MOL1        0.0470
     58  H15        -1.6449   17.0419   -7.1908 H         1 MOL1        0.0470
     59  H16        -3.5301   12.6210   -6.4258 H         1 MOL1        0.0549
     60  H17        -1.8131   12.2240   -7.2245 H         1 MOL1        0.0549
     61  H20        -3.4749   11.7687  -10.3871 H         1 MOL1        0.0624
     62  H21        -2.2549   11.1928   -8.9841 H         1 MOL1        0.0624
     63  H22        -3.5487    7.8383   -6.0090 H         1 MOL1        0.0910
     64  H23        -3.8720    6.4758   -4.1252 H         1 MOL1        0.0908
     65  H24        -7.5649    8.7320   -6.0520 H         1 MOL1        0.0929
     66  H25        -9.7310    9.4499   -4.4318 H         1 MOL1        0.0553
     67  H26       -10.0246    8.8693   -2.5918 H         1 MOL1        0.0553
     68  H27        -7.5948   10.3442   -4.0120 H         1 MOL1        0.0547
     69  H28        -7.1413    9.1329   -2.5672 H         1 MOL1        0.0547
     70  H29       -10.5487   10.4349   -2.3164 H         1 MOL1        0.0529
     71  H30        -9.7885   11.8010   -3.4840 H         1 MOL1        0.0529
     72  H31       -10.2650   11.9165   -0.2697 H         1 MOL1        0.0526
     73  H32       -11.3256   12.8010   -1.6600 H         1 MOL1        0.0526
     74  H35        -7.0418   13.9838   -1.1569 H         1 MOL1        0.0526
     75  H36        -7.7743   12.5990    0.0149 H         1 MOL1        0.0526
     76  H37        -7.4591   12.4813   -3.2210 H         1 MOL1        0.0529
     77  H38        -6.3402   11.6216   -1.8751 H         1 MOL1        0.0529
     78  H39        -7.4860    7.8082   -9.1820 H         1 MOL1        0.0628
     79  H40        -8.2803    8.9949   -7.8460 H         1 MOL1        0.0628
     80  H41        -6.9430    8.8780  -11.4009 H         1 MOL1        0.0601
     81  H42        -7.8699   10.5231  -11.8950 H         1 MOL1        0.0601
     82  H43        -6.4273   11.9414  -10.4688 H         1 MOL1        0.0516
     83  H44        -5.2559   10.6982  -11.4258 H         1 MOL1        0.0516
     84  H45       -11.0142   11.4132   -9.5422 H         1 MOL1        0.0588
     85  H46       -12.0134    9.7991   -9.1412 H         1 MOL1        0.0588
     86  H47       -10.5205   10.3164   -7.9993 H         1 MOL1        0.0588
     87  H          -2.9464   14.9137   -6.7057 H         1 MOL1        0.1921
     88  H          -8.4053   10.5164   -1.2234 H         1 MOL1        0.1922
     89  H           2.3900   17.3076   -5.0853 H         1 MOL1        0.0438
     90  H           1.2989   16.9586   -3.5909 H         1 MOL1        0.0438
     91  H           1.6173   18.7808   -4.0895 H         1 MOL1        0.0438
     92  H          -1.6648   18.1688   -5.3568 H         1 MOL1        0.0438
     93  H          -0.8539   17.6566   -3.6685 H         1 MOL1        0.0438
     94  H          -0.4353   19.2404   -4.4928 H         1 MOL1        0.0438
     95  H           1.3912   17.7597   -6.9401 H         1 MOL1        0.0438
     96  H          -0.3906   18.5737   -6.9905 H         1 MOL1        0.0438
     97  H           0.9697   19.2747   -6.0431 H         1 MOL1        0.0438
     98  H          -5.0477   13.4072   -9.3060 H         1 MOL1        0.3291
@<TRIPOS>BOND
     1      1      2 1 
     2      2      3 1 
     3      3      4 1 
     4      3      8 1 
     5      4      5 1 
     6      5      6 1 
     7      6      7 1 
     8      6      9 1 
     9      7      8 1 
    10      9     10 1 
    11     10     11 1 
    12     10     48 1 
    13     11     12 1 
    14     12     13 ar
    15     12     16 ar
    16     13     14 ar
    17     13     39 1 
    18     14     15 ar
    19     14     36 1 
    20     15     16 ar
    21     15     17 1 
    22     17     18 ar
    23     17     22 ar
    24     18     19 ar
    25     19     20 ar
    26     20     21 ar
    27     20     32 1 
    28     21     22 ar
    29     21     23 1 
    30     23     24 1 
    31     24     25 1 
    32     25     26 1 
    33     26     27 1 
    34     26     31 1 
    35     27     28 1 
    36     28     29 1 
    37     29     30 1 
    38     29     44 1 
    39     29     46 1 
    40     30     31 1 
    41     32     33 1 
    42     32     34 1 
    43     32     35 1 
    44     36     37 1 
    45     37     38 1 
    46     37     40 1 
    47     38     39 1 
    48     40     41 2 
    49     40     42 2 
    50     40     43 1 
    51     45      2 1 
    52     47      2 1 
    53      3     50 1 
    54      4     51 1 
    55      4     52 1 
    56      5     53 1 
    57      5     54 1 
    58      7     55 1 
    59      7     56 1 
    60      8     57 1 
    61      8     58 1 
    62      9     59 1 
    63      9     60 1 
    64     10     49 1 
    65     11     61 1 
    66     11     62 1 
    67     18     63 1 
    68     19     64 1 
    69     22     65 1 
    70     24     66 1 
    71     24     67 1 
    72     25     68 1 
    73     25     69 1 
    74     27     70 1 
    75     27     71 1 
    76     28     72 1 
    77     28     73 1 
    78     30     74 1 
    79     30     75 1 
    80     31     76 1 
    81     31     77 1 
    82     36     78 1 
    83     36     79 1 
    84     38     80 1 
    85     38     81 1 
    86     39     82 1 
    87     39     83 1 
    88     43     84 1 
    89     43     85 1 
    90     43     86 1 
    91     48     98 1 
    92     87      6 1 
    93     88     26 1 
    94     89      1 1 
    95     90      1 1 
    96     91      1 1 
    97     92     45 1 
    98     93     45 1 
    99     94     45 1 
   100     95     47 1 
   101     96     47 1 
   102     97     47 1 
@<TRIPOS>SUBSTRUCTURE
     1 MOL1         1 MOLECULE          1 A
