CatS_180
 OpenBabel05281909343D

 98102  0  0  1  0  0  0  0  0999 V2000
    1.3872   17.6877   -4.5417 C   0  0  0  0  0  0  0  0  0  0  0  0
    0.2860   17.5009   -5.3040 C   0  0  0  0  0  0  0  0  0  0  0  0
   -0.1247   16.1700   -5.7829 C   0  0  1  0  0  0  0  0  0  0  0  0
   -1.1910   15.5856   -4.8380 C   0  0  0  0  0  0  0  0  0  0  0  0
   -1.6666   14.2213   -5.3739 C   0  0  0  0  0  0  0  0  0  0  0  0
   -2.2338   14.3439   -6.7311 N   0  3  1  0  0  0  0  0  0  0  0  0
   -1.2232   14.8906   -7.6590 C   0  0  0  0  0  0  0  0  0  0  0  0
   -0.7220   16.2748   -7.1989 C   0  0  0  0  0  0  0  0  0  0  0  0
   -2.7051   13.0260   -7.1970 C   0  0  0  0  0  0  0  0  0  0  0  0
   -3.4128   13.0569   -8.5710 C   0  0  1  0  0  0  0  0  0  0  0  0
   -3.3396   11.6550   -9.2001 C   0  0  0  0  0  0  0  0  0  0  0  0
   -4.3391   10.6962   -8.7088 N   0  0  0  0  0  0  0  0  0  0  0  0
   -5.5312   10.3252   -9.2408 C   0  0  0  0  0  0  0  0  0  0  0  0
   -6.2050    9.4820   -8.4580 C   0  0  0  0  0  0  0  0  0  0  0  0
   -5.3398    9.2806   -7.3581 C   0  0  0  0  0  0  0  0  0  0  0  0
   -4.2647   10.0228   -7.5359 N   0  0  0  0  0  0  0  0  0  0  0  0
   -5.5280    8.4130   -6.2061 C   0  0  0  0  0  0  0  0  0  0  0  0
   -4.4678    7.7390   -5.6280 C   0  0  0  0  0  0  0  0  0  0  0  0
   -4.6602    6.9420   -4.5283 C   0  0  0  0  0  0  0  0  0  0  0  0
   -5.9101    6.7701   -3.9698 C   0  0  0  0  0  0  0  0  0  0  0  0
   -6.9758    7.4400   -4.5581 C   0  0  0  0  0  0  0  0  0  0  0  0
   -6.7839    8.2539   -5.6506 C   0  0  0  0  0  0  0  0  0  0  0  0
   -8.6623    7.2888   -3.9530 S   0  0  0  0  0  0  0  0  0  0  0  0
   -9.2129    8.9468   -3.4728 C   0  0  0  0  0  0  0  0  0  0  0  0
   -8.0196    9.8151   -3.0206 C   0  0  0  0  0  0  0  0  0  0  0  0
   -8.4071   10.8677   -2.0651 N   0  3  0  0  0  0  0  0  0  0  0  0
   -9.7687   11.3441   -2.3741 C   0  0  0  0  0  0  0  0  0  0  0  0
  -10.2311   12.4112   -1.3620 C   0  0  0  0  0  0  0  0  0  0  0  0
   -9.2440   13.5920   -1.3597 C   0  0  0  0  0  0  0  0  0  0  0  0
   -7.8200   13.0741   -1.0855 C   0  0  0  0  0  0  0  0  0  0  0  0
   -7.4531   11.9950   -2.1229 C   0  0  0  0  0  0  0  0  0  0  0  0
   -5.9449    5.8567   -2.7422 C   0  0  0  0  0  0  0  0  0  0  0  0
   -4.9474    4.8881   -2.7812 F   0  0  0  0  0  0  0  0  0  0  0  0
   -7.1417    5.1657   -2.5931 F   0  0  0  0  0  0  0  0  0  0  0  0
   -5.7382    6.5910   -1.5779 F   0  0  0  0  0  0  0  0  0  0  0  0
   -7.5839    8.9488   -8.8236 C   0  0  0  0  0  0  0  0  0  0  0  0
   -8.2564    9.7459   -9.8748 N   0  0  0  0  0  0  0  0  0  0  0  0
   -7.3181    9.9448  -11.0011 C   0  0  0  0  0  0  0  0  0  0  0  0
   -6.0939   10.7930  -10.5729 C   0  0  0  0  0  0  0  0  0  0  0  0
   -9.7911    9.3101  -10.1697 S   0  0  0  0  0  0  0  0  0  0  0  0
   -9.8659    7.9422   -9.7664 O   0  0  0  0  0  0  0  0  0  0  0  0
  -10.0690    9.5799  -11.5450 O   0  0  0  0  0  0  0  0  0  0  0  0
  -10.9188   10.2892   -9.1312 C   0  0  0  0  0  0  0  0  0  0  0  0
   -9.5602   14.3841   -0.5171 F   0  0  0  0  0  0  0  0  0  0  0  0
   -0.6190   18.0803   -4.7687 C   0  0  0  0  0  0  0  0  0  0  0  0
   -9.2641   14.1291   -2.4330 F   0  0  0  0  0  0  0  0  0  0  0  0
    0.4903   18.1898   -6.2668 C   0  0  0  0  0  0  0  0  0  0  0  0
   -4.5657   13.3631   -8.4239 O   0  0  0  0  0  0  0  0  0  0  0  0
   -2.8848   13.8323   -9.3198 H   0  0  0  0  0  0  0  0  0  0  0  0
    0.8141   15.4250   -5.8328 H   0  0  0  0  0  0  0  0  0  0  0  0
   -0.7250   15.4541   -3.7393 H   0  0  0  0  0  0  0  0  0  0  0  0
   -2.1309   16.3302   -4.7859 H   0  0  0  0  0  0  0  0  0  0  0  0
   -2.5058   13.8239   -4.6130 H   0  0  0  0  0  0  0  0  0  0  0  0
   -0.7427   13.4540   -5.3879 H   0  0  0  0  0  0  0  0  0  0  0  0
   -1.7002   15.0320   -8.7498 H   0  0  0  0  0  0  0  0  0  0  0  0
   -0.2801   14.1498   -7.7231 H   0  0  0  0  0  0  0  0  0  0  0  0
    0.1169   16.6711   -7.9590 H   0  0  0  0  0  0  0  0  0  0  0  0
   -1.6449   17.0419   -7.1908 H   0  0  0  0  0  0  0  0  0  0  0  0
   -3.5301   12.6210   -6.4258 H   0  0  0  0  0  0  0  0  0  0  0  0
   -1.8131   12.2240   -7.2245 H   0  0  0  0  0  0  0  0  0  0  0  0
   -3.4749   11.7687  -10.3871 H   0  0  0  0  0  0  0  0  0  0  0  0
   -2.2549   11.1928   -8.9841 H   0  0  0  0  0  0  0  0  0  0  0  0
   -3.5487    7.8383   -6.0090 H   0  0  0  0  0  0  0  0  0  0  0  0
   -3.8720    6.4758   -4.1252 H   0  0  0  0  0  0  0  0  0  0  0  0
   -7.5649    8.7320   -6.0520 H   0  0  0  0  0  0  0  0  0  0  0  0
   -9.7310    9.4499   -4.4318 H   0  0  0  0  0  0  0  0  0  0  0  0
  -10.0246    8.8693   -2.5918 H   0  0  0  0  0  0  0  0  0  0  0  0
   -7.5948   10.3442   -4.0120 H   0  0  0  0  0  0  0  0  0  0  0  0
   -7.1413    9.1329   -2.5672 H   0  0  0  0  0  0  0  0  0  0  0  0
  -10.5487   10.4349   -2.3164 H   0  0  0  0  0  0  0  0  0  0  0  0
   -9.7885   11.8010   -3.4840 H   0  0  0  0  0  0  0  0  0  0  0  0
  -10.2650   11.9165   -0.2697 H   0  0  0  0  0  0  0  0  0  0  0  0
  -11.3256   12.8010   -1.6600 H   0  0  0  0  0  0  0  0  0  0  0  0
   -7.0418   13.9838   -1.1569 H   0  0  0  0  0  0  0  0  0  0  0  0
   -7.7743   12.5990    0.0149 H   0  0  0  0  0  0  0  0  0  0  0  0
   -7.4591   12.4813   -3.2210 H   0  0  0  0  0  0  0  0  0  0  0  0
   -6.3402   11.6216   -1.8751 H   0  0  0  0  0  0  0  0  0  0  0  0
   -7.4860    7.8082   -9.1820 H   0  0  0  0  0  0  0  0  0  0  0  0
   -8.2803    8.9949   -7.8460 H   0  0  0  0  0  0  0  0  0  0  0  0
   -6.9430    8.8780  -11.4009 H   0  0  0  0  0  0  0  0  0  0  0  0
   -7.8699   10.5231  -11.8950 H   0  0  0  0  0  0  0  0  0  0  0  0
   -6.4273   11.9414  -10.4688 H   0  0  0  0  0  0  0  0  0  0  0  0
   -5.2559   10.6982  -11.4258 H   0  0  0  0  0  0  0  0  0  0  0  0
  -11.0142   11.4132   -9.5422 H   0  0  0  0  0  0  0  0  0  0  0  0
  -12.0134    9.7991   -9.1412 H   0  0  0  0  0  0  0  0  0  0  0  0
  -10.5205   10.3164   -7.9993 H   0  0  0  0  0  0  0  0  0  0  0  0
   -2.9464   14.9137   -6.7057 H   0  0  0  0  0  0  0  0  0  0  0  0
   -8.4053   10.5164   -1.2234 H   0  0  0  0  0  0  0  0  0  0  0  0
    2.3900   17.3076   -5.0853 H   0  0  0  0  0  0  0  0  0  0  0  0
    1.2989   16.9586   -3.5909 H   0  0  0  0  0  0  0  0  0  0  0  0
    1.6173   18.7808   -4.0895 H   0  0  0  0  0  0  0  0  0  0  0  0
   -1.6648   18.1688   -5.3568 H   0  0  0  0  0  0  0  0  0  0  0  0
   -0.8539   17.6566   -3.6685 H   0  0  0  0  0  0  0  0  0  0  0  0
   -0.4353   19.2404   -4.4928 H   0  0  0  0  0  0  0  0  0  0  0  0
    1.3912   17.7597   -6.9401 H   0  0  0  0  0  0  0  0  0  0  0  0
   -0.3906   18.5737   -6.9905 H   0  0  0  0  0  0  0  0  0  0  0  0
    0.9697   19.2747   -6.0431 H   0  0  0  0  0  0  0  0  0  0  0  0
   -5.0477   13.4072   -9.3060 H   0  0  0  0  0  0  0  0  0  0  0  0
  1  2  1  0  0  0  0
  2  3  1  0  0  0  0
  3  4  1  0  0  0  0
  3  8  1  0  0  0  0
  3 50  1  6  0  0  0
  4  5  1  0  0  0  0
  4 51  1  0  0  0  0
  4 52  1  0  0  0  0
  5  6  1  0  0  0  0
  5 53  1  0  0  0  0
  5 54  1  0  0  0  0
  6  7  1  0  0  0  0
  6  9  1  0  0  0  0
  6 87  1  1  0  0  0
  7  8  1  0  0  0  0
  7 55  1  0  0  0  0
  7 56  1  0  0  0  0
  8 57  1  0  0  0  0
  8 58  1  0  0  0  0
  9 10  1  0  0  0  0
  9 59  1  0  0  0  0
  9 60  1  0  0  0  0
 10 11  1  0  0  0  0
 10 48  1  0  0  0  0
 10 49  1  6  0  0  0
 11 12  1  0  0  0  0
 11 61  1  0  0  0  0
 11 62  1  0  0  0  0
 12 13  1  0  0  0  0
 12 16  1  0  0  0  0
 13 14  2  0  0  0  0
 13 39  1  0  0  0  0
 14 15  1  0  0  0  0
 14 36  1  0  0  0  0
 15 16  2  0  0  0  0
 15 17  1  0  0  0  0
 17 18  2  0  0  0  0
 17 22  1  0  0  0  0
 18 19  1  0  0  0  0
 18 63  1  0  0  0  0
 19 20  2  0  0  0  0
 19 64  1  0  0  0  0
 20 21  1  0  0  0  0
 20 32  1  0  0  0  0
 21 22  2  0  0  0  0
 21 23  1  0  0  0  0
 22 65  1  0  0  0  0
 23 24  1  0  0  0  0
 24 25  1  0  0  0  0
 24 66  1  0  0  0  0
 24 67  1  0  0  0  0
 25 26  1  0  0  0  0
 25 68  1  0  0  0  0
 25 69  1  0  0  0  0
 26 27  1  0  0  0  0
 26 31  1  0  0  0  0
 27 28  1  0  0  0  0
 27 70  1  0  0  0  0
 27 71  1  0  0  0  0
 28 29  1  0  0  0  0
 28 72  1  0  0  0  0
 28 73  1  0  0  0  0
 29 30  1  0  0  0  0
 29 44  1  0  0  0  0
 29 46  1  0  0  0  0
 30 31  1  0  0  0  0
 30 74  1  0  0  0  0
 30 75  1  0  0  0  0
 31 76  1  0  0  0  0
 31 77  1  0  0  0  0
 32 33  1  0  0  0  0
 32 34  1  0  0  0  0
 32 35  1  0  0  0  0
 36 37  1  0  0  0  0
 36 78  1  0  0  0  0
 36 79  1  0  0  0  0
 37 38  1  0  0  0  0
 37 40  1  0  0  0  0
 38 39  1  0  0  0  0
 38 80  1  0  0  0  0
 38 81  1  0  0  0  0
 39 82  1  0  0  0  0
 39 83  1  0  0  0  0
 40 41  2  0  0  0  0
 40 42  2  0  0  0  0
 40 43  1  0  0  0  0
 43 84  1  0  0  0  0
 43 85  1  0  0  0  0
 43 86  1  0  0  0  0
 45  2  1  0  0  0  0
 47  2  1  0  0  0  0
 48 98  1  0  0  0  0
 88 26  1  0  0  0  0
 89  1  1  0  0  0  0
 90  1  1  0  0  0  0
 91  1  1  0  0  0  0
 92 45  1  0  0  0  0
 93 45  1  0  0  0  0
 94 45  1  0  0  0  0
 95 47  1  0  0  0  0
 96 47  1  0  0  0  0
 97 47  1  0  0  0  0
M  CHG  2   6   1  26   1
M  END
$$$$
