# Molecule written by the XED library from Cresset
@<TRIPOS>MOLECULE
CatS_84
    87     91      1
SMALL
USER_CHARGES
@<TRIPOS>ATOM
      1  C2         -9.3131   13.6159   -0.9780 C.3       1 MOL1        0.0498
      2  C3         -7.8910   13.0829   -0.9750 C.3       1 MOL1       -0.0467
      3  C4         -7.6840   12.0019   -2.0259 C.3       1 MOL1       -0.0566
      4  N1         -8.6210   10.8950   -1.8360 N.4       1 MOL1       -0.2284
      5  C5         -9.9870   11.3970   -1.9841 C.3       1 MOL1       -0.0566
      6  C6        -10.2920   12.4520   -0.9239 C.3       1 MOL1       -0.0467
      7  C7         -8.3719    9.8092   -2.8120 C.3       1 MOL1       -0.0441
      8  C8         -9.4880    8.7999   -3.1769 C.3       1 MOL1       -0.0087
      9  S1         -8.5651    7.3151   -3.6839 S.3       1 MOL1       -0.1783
     10  C9         -6.9100    7.4770   -4.3939 C.ar      1 MOL1        0.0480
     11  C10        -6.7381    8.2809   -5.5031 C.ar      1 MOL1       -0.0655
     12  C11        -5.5170    8.3460   -6.1690 C.ar      1 MOL1       -0.0066
     13  C12        -4.4809    7.5702   -5.6800 C.ar      1 MOL1       -0.0846
     14  C13        -4.6410    6.7928   -4.5618 C.ar      1 MOL1       -0.0687
     15  C14        -5.8429    6.7389   -3.8889 C.ar      1 MOL1        0.0171
     16  C15        -5.8459    5.8240   -2.6610 C.3       1 MOL1        0.4149
     17  F1         -7.0400    5.1280   -2.5139 F         1 MOL1       -0.1514
     18  F2         -5.6640    6.5240   -1.4689 F         1 MOL1       -0.1514
     19  F3         -4.8230    4.8860   -2.7361 F         1 MOL1       -0.1514
     20  C16        -5.3260    9.1920   -7.3410 C.ar      1 MOL1        0.0392
     21  C17        -6.2171    9.4949   -8.4121 C.ar      1 MOL1       -0.0684
     22  C18        -5.4951   10.3039   -9.1871 C.ar      1 MOL1        0.0572
     23  N2         -4.2530   10.5370   -8.7059 N.pl3     1 MOL1       -0.0670
     24  N3         -4.1921    9.8339   -7.5540 N.2       1 MOL1       -0.2943
     25  C19        -3.1970   11.4171   -9.2430 C.3       1 MOL1        0.0979
     26  C20        -3.1081   12.8812   -8.7670 C.3       1 MOL1        0.0191
     27  C21        -2.6012   12.9100   -7.3040 C.3       1 MOL1       -0.0326
     28  N4         -2.1099   14.2229   -6.8310 N.4       1 MOL1       -0.2259
     29  C22        -1.1789   14.8031   -7.8140 C.3       1 MOL1       -0.0626
     30  C23        -0.7930   16.2411   -7.4112 C.3       1 MOL1       -0.0793
     31  C24        -0.2260   16.3490   -5.9719 C.3       1 MOL1       -0.0602
     32  C25        -1.0422   15.4830   -4.9741 C.3       1 MOL1       -0.0131
     33  C26        -1.4459   14.0971   -5.5230 C.3       1 MOL1       -0.0357
     34  O1         -4.4001   13.5001   -8.8310 O.3       1 MOL1       -0.4408
     35  C29        -6.0391   10.9018  -10.4651 C.3       1 MOL1       -0.0158
     36  C30        -7.5812   10.9049  -10.4300 C.3       1 MOL1        0.0844
     37  N5         -8.1200    9.5691  -10.1281 N.3       1 MOL1       -0.4606
     38  C31        -7.6691    9.1481   -8.7730 C.3       1 MOL1        0.1169
     39  S2         -9.7001    9.4121  -10.5199 S.3       1 MOL1        0.4316
     40  O2         -9.9520    8.0258  -10.2969 O.2       1 MOL1       -0.3139
     41  O3         -9.6782    9.7131  -11.9149 O.2       1 MOL1       -0.3139
     42  C32       -11.2710   10.1641  -10.0209 C.3       1 MOL1        0.0421
     43  H5         -9.5020   14.3071   -0.0201 F         1 MOL1       -0.2169
     44  H29        -2.0600   16.0551   -4.6929 O.3       1 MOL1       -0.4438
     45  H          -9.5969   14.4460   -2.2411 H         1 MOL1        0.0735
     46  H1         -2.3332   13.4769   -9.4643 H         1 MOL1        0.0680
     47  H6         -7.1320   13.9869   -1.1890 H         1 MOL1        0.0497
     48  H7         -7.6450   12.6350    0.1139 H         1 MOL1        0.0497
     49  H8         -7.8932   12.5042   -3.0931 H         1 MOL1        0.0529
     50  H9         -6.5450   11.6290   -1.9449 H         1 MOL1        0.0529
     51  H10       -10.7290   10.4591   -1.9001 H         1 MOL1        0.0529
     52  H11       -10.1611   11.8832   -3.0670 H         1 MOL1        0.0529
     53  H12       -11.3848   12.9120   -1.1320 H         1 MOL1        0.0497
     54  H13       -10.2428   11.9522    0.1691 H         1 MOL1        0.0497
     55  H14        -8.1079   10.3270   -3.8641 H         1 MOL1        0.0547
     56  H15        -7.4139    9.1769   -2.4628 H         1 MOL1        0.0547
     57  H16       -10.1799    8.5311   -2.2341 H         1 MOL1        0.0553
     58  H17       -10.1570    9.2301   -4.0750 H         1 MOL1        0.0553
     59  H18        -7.5111    8.8150   -5.8479 H         1 MOL1        0.0929
     60  H19        -3.5969    7.5779   -6.1429 H         1 MOL1        0.0910
     61  H20        -3.8670    6.2519   -4.2318 H         1 MOL1        0.0908
     62  H21        -2.1419   10.8940   -8.9968 H         1 MOL1        0.0624
     63  H22        -3.3480   11.4211  -10.4369 H         1 MOL1        0.0624
     64  H23        -3.4730   12.5371   -6.5719 H         1 MOL1        0.0549
     65  H24        -1.6929   12.1311   -7.2131 H         1 MOL1        0.0549
     66  H25        -0.2039   14.1150   -7.8829 H         1 MOL1        0.0529
     67  H26        -1.6789   14.8459   -8.9048 H         1 MOL1        0.0529
     68  H27        -1.7920   16.8950   -7.4839 H         1 MOL1        0.0467
     69  H28        -0.0091   16.6811   -8.2012 H         1 MOL1        0.0467
     70  H30        -0.4121   15.3249   -3.9650 H         1 MOL1        0.0668
     71  H31        -0.4751   13.4030   -5.6278 H         1 MOL1        0.0549
     72  H32        -2.2010   13.6001   -4.7342 H         1 MOL1        0.0549
     73  H39        -4.7332   13.5390   -9.7801 H         1 MOL1        0.3291
     74  H40        -5.6771   10.2310  -11.3910 H         1 MOL1        0.0516
     75  H41        -5.6340   12.0220  -10.6050 H         1 MOL1        0.0516
     76  H42        -7.9751   11.2631  -11.5031 H         1 MOL1        0.0601
     77  H43        -7.9638   11.6829   -9.5998 H         1 MOL1        0.0601
     78  H44        -8.3820    9.6720   -7.9630 H         1 MOL1        0.0628
     79  H45        -7.8331    7.9640   -8.7271 H         1 MOL1        0.0628
     80  H46       -11.4819    9.9382   -8.8621 H         1 MOL1        0.0588
     81  H47       -11.2149   11.3503  -10.1951 H         1 MOL1        0.0588
     82  H48       -12.1608    9.7090  -10.6871 H         1 MOL1        0.0588
     83  H          -8.5214   10.5575   -0.9942 H         1 MOL1        0.1921
     84  H          -2.8268   14.7812   -6.7525 H         1 MOL1        0.1930
     85  H           0.8994   15.9330   -5.9869 H         1 MOL1        0.0482
     86  H          -0.2157   17.4944   -5.6145 H         1 MOL1        0.0482
     87  H          -2.5894   15.5461   -4.0054 H         1 MOL1        0.3291
@<TRIPOS>BOND
     1      1      2 1 
     2      1      6 1 
     3      1     43 1 
     4      2      3 1 
     5      3      4 1 
     6      4      5 1 
     7      4      7 1 
     8      5      6 1 
     9      7      8 1 
    10      8      9 1 
    11      9     10 1 
    12     10     11 ar
    13     10     15 ar
    14     11     12 ar
    15     12     13 ar
    16     12     20 1 
    17     13     14 ar
    18     14     15 ar
    19     15     16 1 
    20     16     17 1 
    21     16     18 1 
    22     16     19 1 
    23     20     21 ar
    24     20     24 ar
    25     21     22 ar
    26     21     38 1 
    27     22     23 ar
    28     22     35 1 
    29     23     24 ar
    30     23     25 1 
    31     25     26 1 
    32     26     27 1 
    33     26     34 1 
    34     27     28 1 
    35     28     29 1 
    36     28     33 1 
    37     29     30 1 
    38     30     31 1 
    39     31     32 1 
    40     32     33 1 
    41     32     44 1 
    42     35     36 1 
    43     36     37 1 
    44     37     38 1 
    45     37     39 1 
    46     39     40 2 
    47     39     41 2 
    48     39     42 1 
    49      2     47 1 
    50      2     48 1 
    51      3     49 1 
    52      3     50 1 
    53      4     83 1 
    54      5     51 1 
    55      5     52 1 
    56      6     53 1 
    57      6     54 1 
    58      7     55 1 
    59      7     56 1 
    60      8     57 1 
    61      8     58 1 
    62     11     59 1 
    63     13     60 1 
    64     14     61 1 
    65     25     62 1 
    66     25     63 1 
    67     26     46 1 
    68     27     64 1 
    69     27     65 1 
    70     28     84 1 
    71     29     66 1 
    72     29     67 1 
    73     30     68 1 
    74     30     69 1 
    75     32     70 1 
    76     33     71 1 
    77     33     72 1 
    78     34     73 1 
    79     35     74 1 
    80     35     75 1 
    81     36     76 1 
    82     36     77 1 
    83     38     78 1 
    84     38     79 1 
    85     42     80 1 
    86     42     81 1 
    87     42     82 1 
    88     45      1 1 
    89     85     31 1 
    90     86     31 1 
    91     87     44 1 
@<TRIPOS>SUBSTRUCTURE
     1 MOL1         1 MOLECULE          1 A
