CatS_122
 OpenBabel05281909343D

100105  0  0  1  0  0  0  0  0999 V2000
   -0.3126   16.4296   -5.6446 C   0  0  1  0  0  0  0  0  0  0  0  0
   -1.6012   16.0256   -4.8983 C   0  0  0  0  0  0  0  0  0  0  0  0
   -2.0228   14.5977   -5.3085 C   0  0  0  0  0  0  0  0  0  0  0  0
   -2.2289   14.4834   -6.7998 N   0  3  1  0  0  0  0  0  0  0  0  0
   -1.0132   14.9441   -7.5717 C   0  0  0  0  0  0  0  0  0  0  0  0
   -0.6062   16.3723   -7.1608 C   0  0  0  0  0  0  0  0  0  0  0  0
   -2.6866   13.1001   -7.1940 C   0  0  0  0  0  0  0  0  0  0  0  0
   -3.4293   13.0504   -8.5501 C   0  0  1  0  0  0  0  0  0  0  0  0
   -3.3396   11.6548   -9.1998 C   0  0  0  0  0  0  0  0  0  0  0  0
   -4.3389   10.6963   -8.7083 N   0  0  0  0  0  0  0  0  0  0  0  0
   -5.5309   10.3249   -9.2410 C   0  0  0  0  0  0  0  0  0  0  0  0
   -6.2051    9.4821   -8.4577 C   0  0  0  0  0  0  0  0  0  0  0  0
   -5.3402    9.2805   -7.3577 C   0  0  0  0  0  0  0  0  0  0  0  0
   -4.2645   10.0229   -7.5359 N   0  0  0  0  0  0  0  0  0  0  0  0
   -5.5278    8.4129   -6.2058 C   0  0  0  0  0  0  0  0  0  0  0  0
   -4.4677    7.7390   -5.6283 C   0  0  0  0  0  0  0  0  0  0  0  0
   -4.6601    6.9416   -4.5283 C   0  0  0  0  0  0  0  0  0  0  0  0
   -5.9102    6.7697   -3.9695 C   0  0  0  0  0  0  0  0  0  0  0  0
   -6.9758    7.4398   -4.5578 C   0  0  0  0  0  0  0  0  0  0  0  0
   -6.7836    8.2538   -5.6507 C   0  0  0  0  0  0  0  0  0  0  0  0
   -8.6620    7.2889   -3.9530 S   0  0  0  0  0  0  0  0  0  0  0  0
   -9.2128    8.9473   -3.4726 C   0  0  0  0  0  0  0  0  0  0  0  0
   -8.0195    9.8150   -3.0207 C   0  0  0  0  0  0  0  0  0  0  0  0
   -8.4068   10.8678   -2.0652 N   0  3  2  0  0  0  0  0  0  0  0  0
   -9.7687   11.3440   -2.3740 C   0  0  0  0  0  0  0  0  0  0  0  0
  -10.2313   12.4114   -1.3618 C   0  0  0  0  0  0  0  0  0  0  0  0
   -9.2440   13.5922   -1.3598 C   0  0  2  0  0  0  0  0  0  0  0  0
   -7.8201   13.0744   -1.0854 C   0  0  0  0  0  0  0  0  0  0  0  0
   -7.4532   11.9949   -2.1227 C   0  0  0  0  0  0  0  0  0  0  0  0
   -5.9447    5.8565   -2.7422 C   0  0  0  0  0  0  0  0  0  0  0  0
   -4.9475    4.8882   -2.7812 F   0  0  0  0  0  0  0  0  0  0  0  0
   -7.1420    5.1655   -2.5929 F   0  0  0  0  0  0  0  0  0  0  0  0
   -5.7383    6.5909   -1.5778 F   0  0  0  0  0  0  0  0  0  0  0  0
   -7.5837    8.9490   -8.8236 C   0  0  0  0  0  0  0  0  0  0  0  0
   -8.2561    9.7458   -9.8748 N   0  0  0  0  0  0  0  0  0  0  0  0
   -7.3184    9.9449  -11.0008 C   0  0  0  0  0  0  0  0  0  0  0  0
   -6.0942   10.7934  -10.5728 C   0  0  0  0  0  0  0  0  0  0  0  0
   -9.7910    9.3102  -10.1696 S   0  0  0  0  0  0  0  0  0  0  0  0
   -9.8660    7.9423   -9.7666 O   0  0  0  0  0  0  0  0  0  0  0  0
  -10.0689    9.5803  -11.5446 O   0  0  0  0  0  0  0  0  0  0  0  0
  -10.9191   10.2895   -9.1310 C   0  0  0  0  0  0  0  0  0  0  0  0
   -9.5602   14.3840   -0.5172 F   0  0  0  0  0  0  0  0  0  0  0  0
    0.3140   17.7313   -5.1298 C   0  0  0  0  0  0  0  0  0  0  0  0
    1.0198   17.8139   -3.9310 C   0  0  0  0  0  0  0  0  0  0  0  0
    1.5479   19.0263   -3.5235 C   0  0  0  0  0  0  0  0  0  0  0  0
    1.3945   20.1527   -4.2932 C   0  0  0  0  0  0  0  0  0  0  0  0
    0.7031   20.0772   -5.4780 C   0  0  0  0  0  0  0  0  0  0  0  0
    0.1686   18.8767   -5.8847 C   0  0  0  0  0  0  0  0  0  0  0  0
    1.1845   16.7525   -3.1338 O   0  0  0  0  0  0  0  0  0  0  0  0
    2.1964   15.7915   -3.5003 C   0  0  0  0  0  0  0  0  0  0  0  0
   -4.5824   13.3440   -8.3925 O   0  0  0  0  0  0  0  0  0  0  0  0
    0.4835   15.5571   -5.4435 H   0  0  0  0  0  0  0  0  0  0  0  0
   -1.3979   16.0424   -3.7161 H   0  0  0  0  0  0  0  0  0  0  0  0
   -2.4790   16.7991   -5.1647 H   0  0  0  0  0  0  0  0  0  0  0  0
   -3.0289   14.3123   -4.7189 H   0  0  0  0  0  0  0  0  0  0  0  0
   -1.1550   13.8348   -4.9842 H   0  0  0  0  0  0  0  0  0  0  0  0
   -1.2146   14.9675   -8.7521 H   0  0  0  0  0  0  0  0  0  0  0  0
   -0.0961   14.2009   -7.3562 H   0  0  0  0  0  0  0  0  0  0  0  0
    0.3693   16.7035   -7.7765 H   0  0  0  0  0  0  0  0  0  0  0  0
   -1.5164   17.1095   -7.4215 H   0  0  0  0  0  0  0  0  0  0  0  0
   -3.4398   12.6559   -6.3717 H   0  0  0  0  0  0  0  0  0  0  0  0
   -1.7106   12.4032   -7.2107 H   0  0  0  0  0  0  0  0  0  0  0  0
   -2.9490   13.8368   -9.3152 H   0  0  0  0  0  0  0  0  0  0  0  0
   -3.4748   11.7686  -10.3870 H   0  0  0  0  0  0  0  0  0  0  0  0
   -2.2550   11.1930   -8.9843 H   0  0  0  0  0  0  0  0  0  0  0  0
   -3.5487    7.8383   -6.0087 H   0  0  0  0  0  0  0  0  0  0  0  0
   -3.8720    6.4755   -4.1255 H   0  0  0  0  0  0  0  0  0  0  0  0
   -7.5648    8.7320   -6.0517 H   0  0  0  0  0  0  0  0  0  0  0  0
   -9.7312    9.4499   -4.4319 H   0  0  0  0  0  0  0  0  0  0  0  0
  -10.0248    8.8692   -2.5917 H   0  0  0  0  0  0  0  0  0  0  0  0
   -7.5948   10.3440   -4.0117 H   0  0  0  0  0  0  0  0  0  0  0  0
   -7.1415    9.1328   -2.5672 H   0  0  0  0  0  0  0  0  0  0  0  0
  -10.5487   10.4350   -2.3163 H   0  0  0  0  0  0  0  0  0  0  0  0
   -9.7885   11.8010   -3.4840 H   0  0  0  0  0  0  0  0  0  0  0  0
  -10.2651   11.9166   -0.2700 H   0  0  0  0  0  0  0  0  0  0  0  0
  -11.3257   12.8012   -1.6601 H   0  0  0  0  0  0  0  0  0  0  0  0
   -7.0419   13.9840   -1.1570 H   0  0  0  0  0  0  0  0  0  0  0  0
   -7.7745   12.5991    0.0151 H   0  0  0  0  0  0  0  0  0  0  0  0
   -7.4593   12.4814   -3.2210 H   0  0  0  0  0  0  0  0  0  0  0  0
   -6.3405   11.6218   -1.8750 H   0  0  0  0  0  0  0  0  0  0  0  0
   -7.4864    7.8081   -9.1820 H   0  0  0  0  0  0  0  0  0  0  0  0
   -8.2799    8.9946   -7.8455 H   0  0  0  0  0  0  0  0  0  0  0  0
   -6.9428    8.8780  -11.4007 H   0  0  0  0  0  0  0  0  0  0  0  0
   -7.8699   10.5230  -11.8951 H   0  0  0  0  0  0  0  0  0  0  0  0
   -6.4275   11.9412  -10.4687 H   0  0  0  0  0  0  0  0  0  0  0  0
   -5.2558   10.6984  -11.4261 H   0  0  0  0  0  0  0  0  0  0  0  0
  -11.0142   11.4135   -9.5426 H   0  0  0  0  0  0  0  0  0  0  0  0
  -12.0133    9.7992   -9.1412 H   0  0  0  0  0  0  0  0  0  0  0  0
  -10.5204   10.3164   -7.9992 H   0  0  0  0  0  0  0  0  0  0  0  0
   -9.2596   14.0938   -2.4519 H   0  0  0  0  0  0  0  0  0  0  0  0
   -2.9068   15.0553   -7.0084 H   0  0  0  0  0  0  0  0  0  0  0  0
   -8.4050   10.5164   -1.2235 H   0  0  0  0  0  0  0  0  0  0  0  0
   -0.3331   18.8360   -6.7475 H   0  0  0  0  0  0  0  0  0  0  0  0
    2.0479   19.0850   -2.6592 H   0  0  0  0  0  0  0  0  0  0  0  0
    1.7828   21.0238   -3.9922 H   0  0  0  0  0  0  0  0  0  0  0  0
    0.5877   20.8941   -6.0434 H   0  0  0  0  0  0  0  0  0  0  0  0
    3.0574   15.8002   -2.6645 H   0  0  0  0  0  0  0  0  0  0  0  0
    2.6898   16.0282   -4.5697 H   0  0  0  0  0  0  0  0  0  0  0  0
    1.6951   14.7011   -3.5267 H   0  0  0  0  0  0  0  0  0  0  0  0
   -5.0749   13.3778   -9.2690 H   0  0  0  0  0  0  0  0  0  0  0  0
  1  2  1  0  0  0  0
  1  6  1  0  0  0  0
  1 52  1  1  0  0  0
  2  3  1  0  0  0  0
  2 53  1  0  0  0  0
  2 54  1  0  0  0  0
  3  4  1  0  0  0  0
  3 55  1  0  0  0  0
  3 56  1  0  0  0  0
  4  5  1  0  0  0  0
  4  7  1  0  0  0  0
  4 91  1  6  0  0  0
  5  6  1  0  0  0  0
  5 57  1  0  0  0  0
  5 58  1  0  0  0  0
  6 59  1  0  0  0  0
  6 60  1  0  0  0  0
  7  8  1  0  0  0  0
  7 61  1  0  0  0  0
  7 62  1  0  0  0  0
  8  9  1  0  0  0  0
  8 51  1  0  0  0  0
  8 63  1  6  0  0  0
  9 10  1  0  0  0  0
  9 64  1  0  0  0  0
  9 65  1  0  0  0  0
 10 11  1  0  0  0  0
 10 14  1  0  0  0  0
 11 12  2  0  0  0  0
 11 37  1  0  0  0  0
 12 13  1  0  0  0  0
 12 34  1  0  0  0  0
 13 14  2  0  0  0  0
 13 15  1  0  0  0  0
 15 16  2  0  0  0  0
 15 20  1  0  0  0  0
 16 17  1  0  0  0  0
 16 66  1  0  0  0  0
 17 18  2  0  0  0  0
 17 67  1  0  0  0  0
 18 19  1  0  0  0  0
 18 30  1  0  0  0  0
 19 20  2  0  0  0  0
 19 21  1  0  0  0  0
 20 68  1  0  0  0  0
 21 22  1  0  0  0  0
 22 23  1  0  0  0  0
 22 69  1  0  0  0  0
 22 70  1  0  0  0  0
 23 24  1  0  0  0  0
 23 71  1  0  0  0  0
 23 72  1  0  0  0  0
 24 25  1  0  0  0  0
 24 29  1  0  0  0  0
 24 92  1  1  0  0  0
 25 26  1  0  0  0  0
 25 73  1  0  0  0  0
 25 74  1  0  0  0  0
 26 27  1  0  0  0  0
 26 75  1  0  0  0  0
 26 76  1  0  0  0  0
 27 28  1  0  0  0  0
 27 42  1  0  0  0  0
 27 90  1  6  0  0  0
 28 29  1  0  0  0  0
 28 77  1  0  0  0  0
 28 78  1  0  0  0  0
 29 79  1  0  0  0  0
 29 80  1  0  0  0  0
 30 31  1  0  0  0  0
 30 32  1  0  0  0  0
 30 33  1  0  0  0  0
 34 35  1  0  0  0  0
 34 81  1  0  0  0  0
 34 82  1  0  0  0  0
 35 36  1  0  0  0  0
 35 38  1  0  0  0  0
 36 37  1  0  0  0  0
 36 83  1  0  0  0  0
 36 84  1  0  0  0  0
 37 85  1  0  0  0  0
 37 86  1  0  0  0  0
 38 39  2  0  0  0  0
 38 40  2  0  0  0  0
 38 41  1  0  0  0  0
 41 87  1  0  0  0  0
 41 88  1  0  0  0  0
 41 89  1  0  0  0  0
 43  1  1  0  0  0  0
 43 48  2  0  0  0  0
 44 43  1  0  0  0  0
 45 44  2  0  0  0  0
 46 45  1  0  0  0  0
 47 46  2  0  0  0  0
 48 47  1  0  0  0  0
 49 44  1  0  0  0  0
 50 49  1  0  0  0  0
 51100  1  0  0  0  0
 93 48  1  0  0  0  0
 94 45  1  0  0  0  0
 95 46  1  0  0  0  0
 96 47  1  0  0  0  0
 97 50  1  0  0  0  0
 98 50  1  0  0  0  0
 99 50  1  0  0  0  0
M  CHG  2   4   1  24   1
M  END
$$$$
