# Molecule written by the XED library from Cresset
@<TRIPOS>MOLECULE
CatS_184
    95     99      1
SMALL
USER_CHARGES
@<TRIPOS>ATOM
      1  C2         -9.3130   13.6159   -0.9780 C.3       1 MOL1       -0.0638
      2  C3         -7.8909   13.0830   -0.9750 C.3       1 MOL1       -0.0797
      3  C4         -7.6840   12.0019   -2.0259 C.3       1 MOL1       -0.0625
      4  N1         -8.6210   10.8950   -1.8360 N.4       1 MOL1       -0.2286
      5  C5         -9.9870   11.3970   -1.9840 C.3       1 MOL1       -0.0625
      6  C6        -10.2920   12.4521   -0.9239 C.3       1 MOL1       -0.0797
      7  C7         -8.3719    9.8090   -2.8120 C.3       1 MOL1       -0.0441
      8  C8         -9.4880    8.8000   -3.1770 C.3       1 MOL1       -0.0087
      9  S1         -8.5650    7.3150   -3.6840 S.3       1 MOL1       -0.1783
     10  C9         -6.9100    7.4770   -4.3940 C.ar      1 MOL1        0.0480
     11  C10        -6.7381    8.2809   -5.5031 C.ar      1 MOL1       -0.0655
     12  C11        -5.5170    8.3460   -6.1690 C.ar      1 MOL1       -0.0066
     13  C12        -4.4809    7.5701   -5.6799 C.ar      1 MOL1       -0.0846
     14  C13        -4.6409    6.7929   -4.5619 C.ar      1 MOL1       -0.0687
     15  C14        -5.8429    6.7390   -3.8889 C.ar      1 MOL1        0.0171
     16  C15        -5.8460    5.8240   -2.6609 C.3       1 MOL1        0.4149
     17  F1         -7.0401    5.1280   -2.5140 F         1 MOL1       -0.1514
     18  F2         -5.6640    6.5240   -1.4690 F         1 MOL1       -0.1514
     19  F3         -4.8229    4.8860   -2.7361 F         1 MOL1       -0.1514
     20  C16        -5.3259    9.1921   -7.3410 C.ar      1 MOL1        0.0392
     21  C17        -6.2170    9.4950   -8.4120 C.ar      1 MOL1       -0.0684
     22  C18        -5.4950   10.3039   -9.1871 C.ar      1 MOL1        0.0572
     23  N2         -4.2530   10.5370   -8.7059 N.pl3     1 MOL1       -0.0670
     24  N3         -4.1919    9.8339   -7.5540 N.2       1 MOL1       -0.2943
     25  C19        -3.1970   11.4170   -9.2429 C.3       1 MOL1        0.0979
     26  C20        -3.1080   12.8811   -8.7670 C.3       1 MOL1        0.0191
     27  C21        -2.6012   12.9100   -7.3039 C.3       1 MOL1       -0.0328
     28  N4         -2.1100   14.2229   -6.8311 N.4       1 MOL1       -0.2282
     29  C22        -1.1789   14.8031   -7.8140 C.3       1 MOL1       -0.0619
     30  C23        -0.7930   16.2410   -7.4111 C.3       1 MOL1       -0.0762
     31  C24        -0.2259   16.3490   -5.9719 C.3       1 MOL1       -0.0443
     32  C25        -1.0421   15.4830   -4.9740 C.3       1 MOL1       -0.0762
     33  C26        -1.4459   14.0970   -5.5231 C.3       1 MOL1       -0.0619
     34  C27         1.2640   15.9650   -5.9590 C.3       1 MOL1       -0.1161
     35  C28        -0.3151   17.8319   -5.5480 C.3       1 MOL1       -0.1161
     36  O1         -4.4000   13.5001   -8.8310 O.3       1 MOL1       -0.4408
     37  C29        -6.0391   10.9019  -10.4651 C.3       1 MOL1       -0.0158
     38  C30        -7.5811   10.9049  -10.4300 C.3       1 MOL1        0.0844
     39  N5         -8.1200    9.5691  -10.1280 N.3       1 MOL1       -0.4606
     40  C31        -7.6690    9.1480   -8.7730 C.3       1 MOL1        0.1169
     41  S2         -9.7001    9.4120  -10.5200 S.3       1 MOL1        0.4316
     42  O2         -9.9520    8.0259  -10.2969 O.2       1 MOL1       -0.3139
     43  O3         -9.6781    9.7130  -11.9150 O.2       1 MOL1       -0.3139
     44  C32       -11.2709   10.1641  -10.0210 C.3       1 MOL1        0.0421
     45  H5         -9.5020   14.3070   -0.0201 C.3       1 MOL1       -0.1200
     46  C1         -9.5970   14.4461   -2.2410 H         1 MOL1        0.0485
     47  H1         -2.3331   13.4769   -9.4641 H         1 MOL1        0.0680
     48  H6         -7.1319   13.9869   -1.1890 H         1 MOL1        0.0470
     49  H7         -7.6449   12.6350    0.1139 H         1 MOL1        0.0470
     50  H8         -7.8932   12.5042   -3.0930 H         1 MOL1        0.0528
     51  H9         -6.5451   11.6289   -1.9449 H         1 MOL1        0.0528
     52  H10       -10.7290   10.4591   -1.9000 H         1 MOL1        0.0528
     53  H11       -10.1610   11.8831   -3.0671 H         1 MOL1        0.0528
     54  H12       -11.3849   12.9119   -1.1320 H         1 MOL1        0.0470
     55  H13       -10.2429   11.9521    0.1692 H         1 MOL1        0.0470
     56  H14        -8.1080   10.3270   -3.8642 H         1 MOL1        0.0547
     57  H15        -7.4140    9.1769   -2.4628 H         1 MOL1        0.0547
     58  H16       -10.1800    8.5310   -2.2341 H         1 MOL1        0.0553
     59  H17       -10.1569    9.2300   -4.0749 H         1 MOL1        0.0553
     60  H18        -7.5109    8.8150   -5.8479 H         1 MOL1        0.0929
     61  H19        -3.5969    7.5780   -6.1430 H         1 MOL1        0.0910
     62  H20        -3.8671    6.2520   -4.2319 H         1 MOL1        0.0908
     63  H21        -2.1420   10.8940   -8.9969 H         1 MOL1        0.0624
     64  H22        -3.3480   11.4211  -10.4370 H         1 MOL1        0.0624
     65  H23        -3.4729   12.5370   -6.5720 H         1 MOL1        0.0549
     66  H24        -1.6929   12.1310   -7.2130 H         1 MOL1        0.0549
     67  H25        -0.2040   14.1149   -7.8829 H         1 MOL1        0.0529
     68  H26        -1.6790   14.8460   -8.9049 H         1 MOL1        0.0529
     69  H27        -1.7921   16.8949   -7.4840 H         1 MOL1        0.0472
     70  H28        -0.0090   16.6811   -8.2011 H         1 MOL1        0.0472
     71  H29        -2.0600   16.0550   -4.6929 H         1 MOL1        0.0472
     72  H30        -0.4120   15.3249   -3.9650 H         1 MOL1        0.0472
     73  H31        -0.4751   13.4030   -5.6279 H         1 MOL1        0.0529
     74  H32        -2.2010   13.6000   -4.7341 H         1 MOL1        0.0529
     75  H33         1.8611   16.7020   -6.6881 H         1 MOL1        0.0438
     76  H34         1.4371   14.8410   -6.3320 H         1 MOL1        0.0438
     77  H35         1.7139   16.0879   -4.8541 H         1 MOL1        0.0438
     78  H36         0.2790   18.5019   -6.3521 H         1 MOL1        0.0438
     79  H37         0.1830   17.9589   -4.4669 H         1 MOL1        0.0438
     80  H38        -1.4621   18.1819   -5.5240 H         1 MOL1        0.0438
     81  H39        -4.7331   13.5389   -9.7800 H         1 MOL1        0.3291
     82  H40        -5.6771   10.2310  -11.3910 H         1 MOL1        0.0516
     83  H41        -5.6339   12.0220  -10.6050 H         1 MOL1        0.0516
     84  H42        -7.9751   11.2630  -11.5030 H         1 MOL1        0.0601
     85  H43        -7.9638   11.6829   -9.5999 H         1 MOL1        0.0601
     86  H44        -8.3820    9.6720   -7.9630 H         1 MOL1        0.0628
     87  H45        -7.8331    7.9640   -8.7270 H         1 MOL1        0.0628
     88  H46       -11.4820    9.9381   -8.8620 H         1 MOL1        0.0588
     89  H47       -11.2150   11.3502  -10.1951 H         1 MOL1        0.0588
     90  H48       -12.1610    9.7090  -10.6870 H         1 MOL1        0.0588
     91  H          -8.5214   10.5575   -0.9942 H         1 MOL1        0.1920
     92  H          -2.8267   14.7811   -6.7525 H         1 MOL1        0.1922
     93  H         -10.6185   14.7506   -0.0308 H         1 MOL1        0.0435
     94  H          -9.3218   13.7831    1.0463 H         1 MOL1        0.0435
     95  H          -8.7801   15.2654   -0.0815 H         1 MOL1        0.0435
@<TRIPOS>BOND
     1      1      2 1 
     2      1      6 1 
     3      1     45 1 
     4      2      3 1 
     5      3      4 1 
     6      4      5 1 
     7      4      7 1 
     8      5      6 1 
     9      7      8 1 
    10      8      9 1 
    11      9     10 1 
    12     10     11 ar
    13     10     15 ar
    14     11     12 ar
    15     12     13 ar
    16     12     20 1 
    17     13     14 ar
    18     14     15 ar
    19     15     16 1 
    20     16     17 1 
    21     16     18 1 
    22     16     19 1 
    23     20     21 ar
    24     20     24 ar
    25     21     22 ar
    26     21     40 1 
    27     22     23 ar
    28     22     37 1 
    29     23     24 ar
    30     23     25 1 
    31     25     26 1 
    32     26     27 1 
    33     26     36 1 
    34     27     28 1 
    35     28     29 1 
    36     28     33 1 
    37     29     30 1 
    38     30     31 1 
    39     31     32 1 
    40     31     34 1 
    41     31     35 1 
    42     32     33 1 
    43     37     38 1 
    44     38     39 1 
    45     39     40 1 
    46     39     41 1 
    47     41     42 2 
    48     41     43 2 
    49     41     44 1 
    50      2     48 1 
    51      2     49 1 
    52      3     50 1 
    53      3     51 1 
    54      4     91 1 
    55      5     52 1 
    56      5     53 1 
    57      6     54 1 
    58      6     55 1 
    59      7     56 1 
    60      7     57 1 
    61      8     58 1 
    62      8     59 1 
    63     11     60 1 
    64     13     61 1 
    65     14     62 1 
    66     25     63 1 
    67     25     64 1 
    68     26     47 1 
    69     27     65 1 
    70     27     66 1 
    71     28     92 1 
    72     29     67 1 
    73     29     68 1 
    74     30     69 1 
    75     30     70 1 
    76     32     71 1 
    77     32     72 1 
    78     33     73 1 
    79     33     74 1 
    80     34     75 1 
    81     34     76 1 
    82     34     77 1 
    83     35     78 1 
    84     35     79 1 
    85     35     80 1 
    86     36     81 1 
    87     37     82 1 
    88     37     83 1 
    89     38     84 1 
    90     38     85 1 
    91     40     86 1 
    92     40     87 1 
    93     44     88 1 
    94     44     89 1 
    95     44     90 1 
    96     45     93 1 
    97     45     94 1 
    98     45     95 1 
    99     46      1 1 
@<TRIPOS>SUBSTRUCTURE
     1 MOL1         1 MOLECULE          1 A
