# Molecule written by the XED library from Cresset
@<TRIPOS>MOLECULE
CatS_160
    98    102      1
SMALL
USER_CHARGES
@<TRIPOS>ATOM
      1  C5         -0.1342   16.2940   -5.9150 C.3       1 MOL1       -0.0536
      2  C6         -0.8232   16.4891   -7.2588 C.3       1 MOL1       -0.0783
      3  C7         -1.2900   15.1471   -7.8189 C.3       1 MOL1       -0.0624
      4  N1         -2.1669   14.4291   -6.8691 N.4       1 MOL1       -0.2282
      5  C8         -1.4720   14.2179   -5.5960 C.3       1 MOL1       -0.0624
      6  C9         -1.0460   15.5359   -4.9660 C.3       1 MOL1       -0.0783
      7  C10        -2.5801   13.1269   -7.4201 C.3       1 MOL1       -0.0328
      8  C11        -3.1241   13.0260   -8.8681 C.3       1 MOL1        0.0191
      9  C12        -3.2640   11.5090   -9.1209 C.3       1 MOL1        0.0979
     10  N2         -4.2419   10.5141   -8.6601 N.pl3     1 MOL1       -0.0670
     11  C13        -5.4820   10.2819   -9.1501 C.ar      1 MOL1        0.0572
     12  C14        -6.1812    9.4200   -8.4169 C.ar      1 MOL1       -0.0684
     13  C15        -5.3050    9.1151   -7.3480 C.ar      1 MOL1        0.0392
     14  N3         -4.1750    9.7759   -7.5250 N.2       1 MOL1       -0.2943
     15  C16        -5.5560    8.2630   -6.1939 C.ar      1 MOL1       -0.0066
     16  C17        -4.5302    7.4890   -5.6949 C.ar      1 MOL1       -0.0846
     17  C18        -4.7351    6.6810   -4.6050 C.ar      1 MOL1       -0.0687
     18  C19        -5.9571    6.5960   -3.9660 C.ar      1 MOL1        0.0171
     19  C20        -6.9943    7.3881   -4.4571 C.ar      1 MOL1        0.0480
     20  C21        -6.7800    8.1990   -5.5519 C.ar      1 MOL1       -0.0655
     21  S1         -8.6630    7.4820   -3.7700 S.3       1 MOL1       -0.1782
     22  C22        -9.3310    9.0540   -3.1619 C.3       1 MOL1       -0.0086
     23  C23        -8.2219   10.0751   -2.8261 C.3       1 MOL1       -0.0435
     24  N4         -8.5760   11.1031   -1.8209 N.4       1 MOL1       -0.2221
     25  C24        -9.9618   11.5500   -1.9600 C.3       1 MOL1       -0.0619
     26  C25       -10.3210   12.5461   -0.8610 C.3       1 MOL1       -0.0723
     27  C26        -9.3939   13.7531   -0.8590 C.3       1 MOL1       -0.0219
     28  C27        -7.9501   13.2839   -0.8649 C.3       1 MOL1        0.1911
     29  C28        -7.6879   12.2570   -1.9580 C.3       1 MOL1        0.0050
     30  F1         -7.6270   12.7482    0.3769 F         1 MOL1       -0.1800
     31  F2         -7.1229   14.3871   -1.0520 F         1 MOL1       -0.1800
     32  C29        -5.9110    5.6178   -2.7931 C.3       1 MOL1        0.4149
     33  F3         -7.0479    4.8450   -2.6560 F         1 MOL1       -0.1514
     34  F4         -5.7070    6.2890   -1.5909 F         1 MOL1       -0.1514
     35  F5         -4.8840    4.6871   -2.9151 F         1 MOL1       -0.1514
     36  C30        -7.6091    9.0310   -8.7911 C.3       1 MOL1        0.1169
     37  N5         -8.1021    9.5490  -10.0910 N.3       1 MOL1       -0.4606
     38  C31        -7.6020   10.9238  -10.2949 C.3       1 MOL1        0.0844
     39  C32        -6.0628   10.9440  -10.3819 C.3       1 MOL1       -0.0158
     40  S2         -9.6480    9.2099  -10.4700 S.3       1 MOL1        0.4316
     41  O1         -9.6799    9.4660  -11.8731 O.2       1 MOL1       -0.3139
     42  O2         -9.7610    7.8149  -10.1930 O.2       1 MOL1       -0.3139
     43  C33       -11.2730    9.8120   -9.9541 C.3       1 MOL1        0.0421
     44  O3         -4.3941   13.6859   -8.9950 O.3       1 MOL1       -0.4408
     45  H11        -0.0020   17.3951   -5.4590 C.3       1 MOL1       -0.0490
     46  H           0.7783   17.4911   -4.5530 C.3       1 MOL1       -0.1161
     47  H          -1.0030   17.8427   -4.9720 C.3       1 MOL1       -0.1161
     48  H           0.1257   18.3094   -6.2284 C.3       1 MOL1       -0.1161
     49  H1         -2.3399   13.5120   -9.6369 H         1 MOL1        0.0680
     50  H12        -0.0230   16.9621   -8.0168 H         1 MOL1        0.0470
     51  H13        -1.7601   17.2320   -7.1890 H         1 MOL1        0.0470
     52  H14        -0.3071   14.5310   -8.1251 H         1 MOL1        0.0529
     53  H15        -1.9180   15.3600   -8.8180 H         1 MOL1        0.0529
     54  H16        -0.5079   13.5350   -5.8191 H         1 MOL1        0.0529
     55  H17        -2.1650   13.6380   -4.8070 H         1 MOL1        0.0529
     56  H18        -2.0181   16.1969   -4.7169 H         1 MOL1        0.0470
     57  H19        -0.5130   15.2530   -3.9301 H         1 MOL1        0.0470
     58  H20        -1.6790   12.3470   -7.2932 H         1 MOL1        0.0549
     59  H21        -3.4670   12.7580   -6.6999 H         1 MOL1        0.0549
     60  H22        -2.2441   11.0569   -8.6779 H         1 MOL1        0.0624
     61  H23        -3.2469   11.3531  -10.3110 H         1 MOL1        0.0624
     62  H24        -3.6280    7.5170   -6.1270 H         1 MOL1        0.0910
     63  H25        -3.9709    6.1360   -4.2648 H         1 MOL1        0.0908
     64  H26        -7.5340    8.7609   -5.8898 H         1 MOL1        0.0929
     65  H27       -10.0140    8.8492   -2.1950 H         1 MOL1        0.0553
     66  H28        -9.9371    9.5709   -4.0569 H         1 MOL1        0.0553
     67  H29        -7.2731    9.4750   -2.4009 H         1 MOL1        0.0548
     68  H30        -7.8928   10.5919   -3.8589 H         1 MOL1        0.0548
     69  H31       -10.7040   10.6140   -1.8572 H         1 MOL1        0.0530
     70  H32       -10.1000   12.0339   -3.0490 H         1 MOL1        0.0530
     71  H33       -10.2480   12.0270    0.2198 H         1 MOL1        0.0467
     72  H34       -11.4460   12.9319   -1.0201 H         1 MOL1        0.0467
     73  H35        -9.6092   14.4330   -1.8230 H         1 MOL1        0.0519
     74  H36        -9.5878   14.3971    0.1340 H         1 MOL1        0.0519
     75  H37        -6.5440   11.8981   -1.9201 H         1 MOL1        0.0586
     76  H38        -7.8700   12.7941   -3.0161 H         1 MOL1        0.0586
     77  H39        -8.3370    9.4322   -7.9289 H         1 MOL1        0.0628
     78  H40        -7.6839    7.8372   -8.8309 H         1 MOL1        0.0628
     79  H41        -7.9650   11.6280   -9.3961 H         1 MOL1        0.0601
     80  H42        -8.0209   11.3601  -11.3291 H         1 MOL1        0.0601
     81  H43        -5.6991   12.0839  -10.4540 H         1 MOL1        0.0516
     82  H44        -5.7071   10.3492  -11.3600 H         1 MOL1        0.0516
     83  H45       -11.4341    9.5610   -8.7920 H         1 MOL1        0.0588
     84  H46       -11.3349   10.9991  -10.1199 H         1 MOL1        0.0588
     85  H47       -12.1250    9.2700  -10.6011 H         1 MOL1        0.0588
     86  H48        -4.3182   14.6690   -8.7981 H         1 MOL1        0.3291
     87  H          -2.9095   14.9385   -6.7194 H         1 MOL1        0.1921
     88  H          -8.4738   10.7391   -0.9906 H         1 MOL1        0.1944
     89  H           0.8807   15.6795   -6.1104 H         1 MOL1        0.0492
     90  H           1.8971   17.3399   -4.9738 H         1 MOL1        0.0438
     91  H           0.7690   16.6867   -3.6631 H         1 MOL1        0.0438
     92  H           0.8910   18.5258   -3.9384 H         1 MOL1        0.0438
     93  H          -2.0834   17.9192   -5.5036 H         1 MOL1        0.0438
     94  H          -1.1995   17.5727   -3.8050 H         1 MOL1        0.0438
     95  H          -1.0214   19.0168   -4.6651 H         1 MOL1        0.0438
     96  H           1.0966   18.1076   -6.9144 H         1 MOL1        0.0438
     97  H          -0.7120   18.8048   -6.9432 H         1 MOL1        0.0438
     98  H           0.5898   19.3395   -5.7954 H         1 MOL1        0.0438
@<TRIPOS>BOND
     1      1      2 1 
     2      1      6 1 
     3      1     45 1 
     4      2      3 1 
     5      3      4 1 
     6      4      5 1 
     7      4      7 1 
     8      5      6 1 
     9      7      8 1 
    10      8      9 1 
    11      8     44 1 
    12      9     10 1 
    13     10     11 ar
    14     10     14 ar
    15     11     12 ar
    16     11     39 1 
    17     12     13 ar
    18     12     36 1 
    19     13     14 ar
    20     13     15 1 
    21     15     16 ar
    22     15     20 ar
    23     16     17 ar
    24     17     18 ar
    25     18     19 ar
    26     18     32 1 
    27     19     20 ar
    28     19     21 1 
    29     21     22 1 
    30     22     23 1 
    31     23     24 1 
    32     24     25 1 
    33     24     29 1 
    34     25     26 1 
    35     26     27 1 
    36     27     28 1 
    37     28     29 1 
    38     28     30 1 
    39     28     31 1 
    40     32     33 1 
    41     32     34 1 
    42     32     35 1 
    43     36     37 1 
    44     37     38 1 
    45     37     40 1 
    46     38     39 1 
    47     40     41 2 
    48     40     42 2 
    49     40     43 1 
    50     45     46 1 
    51     45     47 1 
    52     45     48 1 
    53      1     89 1 
    54      2     50 1 
    55      2     51 1 
    56      3     52 1 
    57      3     53 1 
    58      4     87 1 
    59      5     54 1 
    60      5     55 1 
    61      6     56 1 
    62      6     57 1 
    63      7     58 1 
    64      7     59 1 
    65      8     49 1 
    66      9     60 1 
    67      9     61 1 
    68     16     62 1 
    69     17     63 1 
    70     20     64 1 
    71     22     65 1 
    72     22     66 1 
    73     23     67 1 
    74     23     68 1 
    75     24     88 1 
    76     25     69 1 
    77     25     70 1 
    78     26     71 1 
    79     26     72 1 
    80     27     73 1 
    81     27     74 1 
    82     29     75 1 
    83     29     76 1 
    84     36     77 1 
    85     36     78 1 
    86     38     79 1 
    87     38     80 1 
    88     39     81 1 
    89     39     82 1 
    90     43     83 1 
    91     43     84 1 
    92     43     85 1 
    93     44     86 1 
    94     46     90 1 
    95     46     91 1 
    96     46     92 1 
    97     47     93 1 
    98     47     94 1 
    99     47     95 1 
   100     48     96 1 
   101     48     97 1 
   102     48     98 1 
@<TRIPOS>SUBSTRUCTURE
     1 MOL1         1 MOLECULE          1 A
