CatS_174
 OpenBabel05281909343D

 90 94  0  0  1  0  0  0  0  0999 V2000
    1.5390   17.6212   -4.8873 N   0  0  0  0  0  0  0  0  0  0  0  0
    0.2598   17.5464   -5.2822 C   0  0  0  0  0  0  0  0  0  0  0  0
   -0.1246   16.1702   -5.7827 C   0  0  1  0  0  0  0  0  0  0  0  0
   -1.1909   15.5859   -4.8377 C   0  0  0  0  0  0  0  0  0  0  0  0
   -1.6667   14.2212   -5.3743 C   0  0  0  0  0  0  0  0  0  0  0  0
   -2.2339   14.3441   -6.7309 N   0  3  1  0  0  0  0  0  0  0  0  0
   -1.2228   14.8908   -7.6589 C   0  0  0  0  0  0  0  0  0  0  0  0
   -0.7219   16.2748   -7.1991 C   0  0  0  0  0  0  0  0  0  0  0  0
   -2.7049   13.0258   -7.1969 C   0  0  0  0  0  0  0  0  0  0  0  0
   -3.4129   13.0570   -8.5709 C   0  0  1  0  0  0  0  0  0  0  0  0
   -3.3397   11.6551   -9.1999 C   0  0  0  0  0  0  0  0  0  0  0  0
   -4.3388   10.6961   -8.7088 N   0  0  0  0  0  0  0  0  0  0  0  0
   -5.5312   10.3252   -9.2408 C   0  0  0  0  0  0  0  0  0  0  0  0
   -6.2048    9.4820   -8.4578 C   0  0  0  0  0  0  0  0  0  0  0  0
   -5.3403    9.2807   -7.3578 C   0  0  0  0  0  0  0  0  0  0  0  0
   -4.2648   10.0230   -7.5360 N   0  0  0  0  0  0  0  0  0  0  0  0
   -5.5279    8.4128   -6.2060 C   0  0  0  0  0  0  0  0  0  0  0  0
   -4.4677    7.7389   -5.6284 C   0  0  0  0  0  0  0  0  0  0  0  0
   -4.6601    6.9417   -4.5282 C   0  0  0  0  0  0  0  0  0  0  0  0
   -5.9102    6.7700   -3.9696 C   0  0  0  0  0  0  0  0  0  0  0  0
   -6.9761    7.4398   -4.5580 C   0  0  0  0  0  0  0  0  0  0  0  0
   -6.7841    8.2539   -5.6505 C   0  0  0  0  0  0  0  0  0  0  0  0
   -8.6624    7.2887   -3.9531 S   0  0  0  0  0  0  0  0  0  0  0  0
   -9.2128    8.9467   -3.4728 C   0  0  0  0  0  0  0  0  0  0  0  0
   -8.0197    9.8150   -3.0208 C   0  0  0  0  0  0  0  0  0  0  0  0
   -8.4070   10.8680   -2.0648 N   0  3  0  0  0  0  0  0  0  0  0  0
   -9.7689   11.3439   -2.3738 C   0  0  0  0  0  0  0  0  0  0  0  0
  -10.2313   12.4113   -1.3618 C   0  0  0  0  0  0  0  0  0  0  0  0
   -9.2442   13.5921   -1.3598 C   0  0  0  0  0  0  0  0  0  0  0  0
   -7.8197   13.0741   -1.0857 C   0  0  0  0  0  0  0  0  0  0  0  0
   -7.4532   11.9948   -2.1231 C   0  0  0  0  0  0  0  0  0  0  0  0
   -5.9451    5.8567   -2.7421 C   0  0  0  0  0  0  0  0  0  0  0  0
   -4.9472    4.8880   -2.7813 F   0  0  0  0  0  0  0  0  0  0  0  0
   -7.1422    5.1655   -2.5934 F   0  0  0  0  0  0  0  0  0  0  0  0
   -5.7380    6.5908   -1.5781 F   0  0  0  0  0  0  0  0  0  0  0  0
   -7.5839    8.9490   -8.8236 C   0  0  0  0  0  0  0  0  0  0  0  0
   -8.2562    9.7460   -9.8749 N   0  0  0  0  0  0  0  0  0  0  0  0
   -7.3182    9.9449  -11.0011 C   0  0  0  0  0  0  0  0  0  0  0  0
   -6.0942   10.7930  -10.5726 C   0  0  0  0  0  0  0  0  0  0  0  0
   -9.7910    9.3100  -10.1697 S   0  0  0  0  0  0  0  0  0  0  0  0
   -9.8658    7.9423   -9.7661 O   0  0  0  0  0  0  0  0  0  0  0  0
  -10.0689    9.5801  -11.5449 O   0  0  0  0  0  0  0  0  0  0  0  0
  -10.9188   10.2888   -9.1307 C   0  0  0  0  0  0  0  0  0  0  0  0
   -9.5602   14.3838   -0.5172 F   0  0  0  0  0  0  0  0  0  0  0  0
   -0.5243   18.4843   -5.2406 O   0  0  0  0  0  0  0  0  0  0  0  0
   -9.2640   14.1291   -2.4333 F   0  0  0  0  0  0  0  0  0  0  0  0
   -4.5658   13.3628   -8.4238 O   0  0  0  0  0  0  0  0  0  0  0  0
   -2.8853   13.8321   -9.3200 H   0  0  0  0  0  0  0  0  0  0  0  0
    0.8141   15.4252   -5.8331 H   0  0  0  0  0  0  0  0  0  0  0  0
   -0.7253   15.4543   -3.7393 H   0  0  0  0  0  0  0  0  0  0  0  0
   -2.1310   16.3300   -4.7864 H   0  0  0  0  0  0  0  0  0  0  0  0
   -2.5056   13.8239   -4.6130 H   0  0  0  0  0  0  0  0  0  0  0  0
   -0.7429   13.4541   -5.3882 H   0  0  0  0  0  0  0  0  0  0  0  0
   -1.6998   15.0320   -8.7497 H   0  0  0  0  0  0  0  0  0  0  0  0
   -0.2802   14.1498   -7.7232 H   0  0  0  0  0  0  0  0  0  0  0  0
    0.1168   16.6711   -7.9589 H   0  0  0  0  0  0  0  0  0  0  0  0
   -1.6447   17.0420   -7.1910 H   0  0  0  0  0  0  0  0  0  0  0  0
   -3.5301   12.6211   -6.4257 H   0  0  0  0  0  0  0  0  0  0  0  0
   -1.8131   12.2240   -7.2245 H   0  0  0  0  0  0  0  0  0  0  0  0
   -2.2550   11.1926   -8.9839 H   0  0  0  0  0  0  0  0  0  0  0  0
   -3.5489    7.8381   -6.0090 H   0  0  0  0  0  0  0  0  0  0  0  0
   -3.8722    6.4761   -4.1251 H   0  0  0  0  0  0  0  0  0  0  0  0
   -7.5649    8.7319   -6.0517 H   0  0  0  0  0  0  0  0  0  0  0  0
   -9.7308    9.4501   -4.4321 H   0  0  0  0  0  0  0  0  0  0  0  0
  -10.0248    8.8689   -2.5917 H   0  0  0  0  0  0  0  0  0  0  0  0
   -7.5951   10.3442   -4.0120 H   0  0  0  0  0  0  0  0  0  0  0  0
   -7.1412    9.1331   -2.5673 H   0  0  0  0  0  0  0  0  0  0  0  0
  -10.5485   10.4349   -2.3159 H   0  0  0  0  0  0  0  0  0  0  0  0
   -9.7885   11.8010   -3.4839 H   0  0  0  0  0  0  0  0  0  0  0  0
  -10.2647   11.9168   -0.2699 H   0  0  0  0  0  0  0  0  0  0  0  0
  -11.3257   12.8012   -1.6604 H   0  0  0  0  0  0  0  0  0  0  0  0
   -7.0418   13.9840   -1.1570 H   0  0  0  0  0  0  0  0  0  0  0  0
   -7.7743   12.5993    0.0150 H   0  0  0  0  0  0  0  0  0  0  0  0
   -7.4592   12.4811   -3.2209 H   0  0  0  0  0  0  0  0  0  0  0  0
   -6.3403   11.6217   -1.8749 H   0  0  0  0  0  0  0  0  0  0  0  0
   -7.4860    7.8081   -9.1823 H   0  0  0  0  0  0  0  0  0  0  0  0
   -8.2803    8.9947   -7.8460 H   0  0  0  0  0  0  0  0  0  0  0  0
   -6.9427    8.8784  -11.4011 H   0  0  0  0  0  0  0  0  0  0  0  0
   -7.8701   10.5226  -11.8949 H   0  0  0  0  0  0  0  0  0  0  0  0
   -6.4273   11.9414  -10.4689 H   0  0  0  0  0  0  0  0  0  0  0  0
   -5.2559   10.6982  -11.4263 H   0  0  0  0  0  0  0  0  0  0  0  0
  -11.0145   11.4131   -9.5421 H   0  0  0  0  0  0  0  0  0  0  0  0
  -12.0137    9.7989   -9.1413 H   0  0  0  0  0  0  0  0  0  0  0  0
  -10.5204   10.3166   -7.9993 H   0  0  0  0  0  0  0  0  0  0  0  0
   -2.9463   14.9137   -6.7056 H   0  0  0  0  0  0  0  0  0  0  0  0
   -8.4052   10.5166   -1.2236 H   0  0  0  0  0  0  0  0  0  0  0  0
    2.0711   16.9221   -4.9289 H   0  0  0  0  0  0  0  0  0  0  0  0
    1.8515   18.3838   -4.5785 H   0  0  0  0  0  0  0  0  0  0  0  0
   -3.4678   11.7778  -10.3859 H   0  0  0  0  0  0  0  0  0  0  0  0
   -5.0493   13.4019   -9.3050 H   0  0  0  0  0  0  0  0  0  0  0  0
  1 87  1  0  0  0  0
  1 88  1  0  0  0  0
  2  1  1  0  0  0  0
  2 45  2  0  0  0  0
  3  2  1  0  0  0  0
  3 49  1  6  0  0  0
  4  3  1  0  0  0  0
  5  4  1  0  0  0  0
  6  5  1  0  0  0  0
  6 85  1  1  0  0  0
  7  6  1  0  0  0  0
  8  3  1  0  0  0  0
  8  7  1  0  0  0  0
  9  6  1  0  0  0  0
 10  9  1  0  0  0  0
 10 48  1  6  0  0  0
 11 10  1  0  0  0  0
 12 11  1  0  0  0  0
 13 12  1  0  0  0  0
 14 13  2  0  0  0  0
 15 14  1  0  0  0  0
 16 12  1  0  0  0  0
 16 15  2  0  0  0  0
 17 15  1  0  0  0  0
 18 17  2  0  0  0  0
 19 18  1  0  0  0  0
 20 19  2  0  0  0  0
 21 20  1  0  0  0  0
 22 17  1  0  0  0  0
 22 21  2  0  0  0  0
 23 21  1  0  0  0  0
 24 23  1  0  0  0  0
 25 24  1  0  0  0  0
 26 25  1  0  0  0  0
 26 86  1  0  0  0  0
 27 26  1  0  0  0  0
 28 27  1  0  0  0  0
 29 28  1  0  0  0  0
 30 29  1  0  0  0  0
 31 26  1  0  0  0  0
 31 30  1  0  0  0  0
 32 20  1  0  0  0  0
 33 32  1  0  0  0  0
 34 32  1  0  0  0  0
 35 32  1  0  0  0  0
 36 14  1  0  0  0  0
 37 36  1  0  0  0  0
 38 37  1  0  0  0  0
 39 13  1  0  0  0  0
 39 38  1  0  0  0  0
 40 37  1  0  0  0  0
 41 40  2  0  0  0  0
 42 40  2  0  0  0  0
 43 40  1  0  0  0  0
 44 29  1  0  0  0  0
 46 29  1  0  0  0  0
 47 10  1  0  0  0  0
 50  4  1  0  0  0  0
 51  4  1  0  0  0  0
 52  5  1  0  0  0  0
 53  5  1  0  0  0  0
 54  7  1  0  0  0  0
 55  7  1  0  0  0  0
 56  8  1  0  0  0  0
 57  8  1  0  0  0  0
 58  9  1  0  0  0  0
 59  9  1  0  0  0  0
 60 11  1  0  0  0  0
 61 18  1  0  0  0  0
 62 19  1  0  0  0  0
 63 22  1  0  0  0  0
 64 24  1  0  0  0  0
 65 24  1  0  0  0  0
 66 25  1  0  0  0  0
 67 25  1  0  0  0  0
 68 27  1  0  0  0  0
 69 27  1  0  0  0  0
 70 28  1  0  0  0  0
 71 28  1  0  0  0  0
 72 30  1  0  0  0  0
 73 30  1  0  0  0  0
 74 31  1  0  0  0  0
 75 31  1  0  0  0  0
 76 36  1  0  0  0  0
 77 36  1  0  0  0  0
 78 38  1  0  0  0  0
 79 38  1  0  0  0  0
 80 39  1  0  0  0  0
 81 39  1  0  0  0  0
 82 43  1  0  0  0  0
 83 43  1  0  0  0  0
 84 43  1  0  0  0  0
 89 11  1  0  0  0  0
 90 47  1  0  0  0  0
M  CHG  2   6   1  26   1
M  END
$$$$
