# Molecule written by the XED library from Cresset
@<TRIPOS>MOLECULE
CatS_122
   100    105      1
SMALL
USER_CHARGES
@<TRIPOS>ATOM
      1  C4         -0.3126   16.4296   -5.6446 C.3       1 MOL1       -0.0183
      2  C5         -1.6012   16.0256   -4.8983 C.3       1 MOL1       -0.0741
      3  C6         -2.0228   14.5977   -5.3085 C.3       1 MOL1       -0.0618
      4  N2         -2.2289   14.4834   -6.7998 N.4       1 MOL1       -0.2282
      5  C7         -1.0132   14.9441   -7.5717 C.3       1 MOL1       -0.0618
      6  C8         -0.6062   16.3723   -7.1608 C.3       1 MOL1       -0.0741
      7  C9         -2.6866   13.1001   -7.1940 C.3       1 MOL1       -0.0328
      8  C10        -3.4293   13.0504   -8.5501 C.3       1 MOL1        0.0191
      9  C11        -3.3396   11.6548   -9.1998 C.3       1 MOL1        0.0979
     10  N3         -4.3389   10.6963   -8.7083 N.pl3     1 MOL1       -0.0670
     11  C12        -5.5309   10.3249   -9.2410 C.ar      1 MOL1        0.0572
     12  C13        -6.2051    9.4821   -8.4577 C.ar      1 MOL1       -0.0684
     13  C14        -5.3402    9.2805   -7.3577 C.ar      1 MOL1        0.0392
     14  N4         -4.2645   10.0229   -7.5359 N.2       1 MOL1       -0.2943
     15  C15        -5.5278    8.4129   -6.2058 C.ar      1 MOL1       -0.0066
     16  C16        -4.4677    7.7390   -5.6283 C.ar      1 MOL1       -0.0846
     17  C17        -4.6601    6.9416   -4.5283 C.ar      1 MOL1       -0.0687
     18  C18        -5.9102    6.7697   -3.9695 C.ar      1 MOL1        0.0171
     19  C19        -6.9758    7.4398   -4.5578 C.ar      1 MOL1        0.0480
     20  C20        -6.7836    8.2538   -5.6507 C.ar      1 MOL1       -0.0655
     21  S1         -8.6620    7.2889   -3.9530 S.3       1 MOL1       -0.1783
     22  C21        -9.2128    8.9473   -3.4726 C.3       1 MOL1       -0.0087
     23  C22        -8.0195    9.8150   -3.0207 C.3       1 MOL1       -0.0441
     24  N5         -8.4068   10.8678   -2.0652 N.4       1 MOL1       -0.2284
     25  C23        -9.7687   11.3440   -2.3740 C.3       1 MOL1       -0.0566
     26  C24       -10.2313   12.4114   -1.3618 C.3       1 MOL1       -0.0467
     27  C25        -9.2440   13.5922   -1.3598 C.3       1 MOL1        0.0498
     28  C26        -7.8201   13.0744   -1.0854 C.3       1 MOL1       -0.0467
     29  C27        -7.4532   11.9949   -2.1227 C.3       1 MOL1       -0.0566
     30  C28        -5.9447    5.8565   -2.7422 C.3       1 MOL1        0.4149
     31  F1         -4.9475    4.8882   -2.7812 F         1 MOL1       -0.1514
     32  F2         -7.1420    5.1655   -2.5929 F         1 MOL1       -0.1514
     33  F3         -5.7383    6.5909   -1.5778 F         1 MOL1       -0.1514
     34  C29        -7.5837    8.9490   -8.8236 C.3       1 MOL1        0.1169
     35  N6         -8.2561    9.7458   -9.8748 N.3       1 MOL1       -0.4606
     36  C30        -7.3184    9.9449  -11.0008 C.3       1 MOL1        0.0844
     37  C31        -6.0942   10.7934  -10.5728 C.3       1 MOL1       -0.0158
     38  S2         -9.7910    9.3102  -10.1696 S.3       1 MOL1        0.4316
     39  O3         -9.8660    7.9423   -9.7666 O.2       1 MOL1       -0.3139
     40  O4        -10.0689    9.5803  -11.5446 O.2       1 MOL1       -0.3139
     41  C32       -10.9191   10.2895   -9.1310 C.3       1 MOL1        0.0421
     42  H33        -9.5602   14.3840   -0.5172 F         1 MOL1       -0.2169
     43  H           0.3140   17.7313   -5.1298 C.ar      1 MOL1       -0.0549
     44  C           1.0198   17.8139   -3.9310 C.ar      1 MOL1        0.0636
     45  C           1.5479   19.0263   -3.5235 C.ar      1 MOL1       -0.0835
     46  C           1.3945   20.1527   -4.2932 C.ar      1 MOL1       -0.0867
     47  C           0.7031   20.0772   -5.4780 C.ar      1 MOL1       -0.1073
     48  C           0.1686   18.8767   -5.8847 C.ar      1 MOL1       -0.0824
     49  O           1.1845   16.7525   -3.1338 O.3       1 MOL1       -0.2034
     50  H           2.1964   15.7915   -3.5003 C.3       1 MOL1       -0.0471
     51  H18        -4.5824   13.3440   -8.3925 O.3       1 MOL1       -0.4408
     52  H7          0.4835   15.5571   -5.4435 H         1 MOL1        0.0519
     53  H8         -1.3979   16.0424   -3.7161 H         1 MOL1        0.0472
     54  H9         -2.4790   16.7991   -5.1647 H         1 MOL1        0.0472
     55  H10        -3.0289   14.3123   -4.7189 H         1 MOL1        0.0529
     56  H11        -1.1550   13.8348   -4.9842 H         1 MOL1        0.0529
     57  H12        -1.2146   14.9675   -8.7521 H         1 MOL1        0.0529
     58  H13        -0.0961   14.2009   -7.3562 H         1 MOL1        0.0529
     59  H14         0.3693   16.7035   -7.7765 H         1 MOL1        0.0472
     60  H15        -1.5164   17.1095   -7.4215 H         1 MOL1        0.0472
     61  H16        -3.4398   12.6559   -6.3717 H         1 MOL1        0.0549
     62  H17        -1.7106   12.4032   -7.2107 H         1 MOL1        0.0549
     63  H19        -2.9490   13.8368   -9.3152 H         1 MOL1        0.0680
     64  H20        -3.4748   11.7686  -10.3870 H         1 MOL1        0.0624
     65  H21        -2.2550   11.1930   -8.9843 H         1 MOL1        0.0624
     66  H22        -3.5487    7.8383   -6.0087 H         1 MOL1        0.0910
     67  H23        -3.8720    6.4755   -4.1255 H         1 MOL1        0.0908
     68  H24        -7.5648    8.7320   -6.0517 H         1 MOL1        0.0929
     69  H25        -9.7312    9.4499   -4.4319 H         1 MOL1        0.0553
     70  H26       -10.0248    8.8692   -2.5917 H         1 MOL1        0.0553
     71  H27        -7.5948   10.3440   -4.0117 H         1 MOL1        0.0547
     72  H28        -7.1415    9.1328   -2.5672 H         1 MOL1        0.0547
     73  H29       -10.5487   10.4350   -2.3163 H         1 MOL1        0.0529
     74  H30        -9.7885   11.8010   -3.4840 H         1 MOL1        0.0529
     75  H31       -10.2651   11.9166   -0.2700 H         1 MOL1        0.0497
     76  H32       -11.3257   12.8012   -1.6601 H         1 MOL1        0.0497
     77  H35        -7.0419   13.9840   -1.1570 H         1 MOL1        0.0497
     78  H36        -7.7745   12.5991    0.0151 H         1 MOL1        0.0497
     79  H37        -7.4593   12.4814   -3.2210 H         1 MOL1        0.0529
     80  H38        -6.3405   11.6218   -1.8750 H         1 MOL1        0.0529
     81  H39        -7.4864    7.8081   -9.1820 H         1 MOL1        0.0628
     82  H40        -8.2799    8.9946   -7.8455 H         1 MOL1        0.0628
     83  H41        -6.9428    8.8780  -11.4007 H         1 MOL1        0.0601
     84  H42        -7.8699   10.5230  -11.8951 H         1 MOL1        0.0601
     85  H43        -6.4275   11.9412  -10.4687 H         1 MOL1        0.0516
     86  H44        -5.2558   10.6984  -11.4261 H         1 MOL1        0.0516
     87  H45       -11.0142   11.4135   -9.5426 H         1 MOL1        0.0588
     88  H46       -12.0133    9.7992   -9.1412 H         1 MOL1        0.0588
     89  H47       -10.5204   10.3164   -7.9992 H         1 MOL1        0.0588
     90  H          -9.2596   14.0938   -2.4519 H         1 MOL1        0.0735
     91  H          -2.9068   15.0553   -7.0084 H         1 MOL1        0.1922
     92  H          -8.4050   10.5164   -1.2235 H         1 MOL1        0.1921
     93  H          -0.3331   18.8360   -6.7475 H         1 MOL1        0.0908
     94  H           2.0479   19.0850   -2.6592 H         1 MOL1        0.0924
     95  H           1.7828   21.0238   -3.9922 H         1 MOL1        0.0906
     96  H           0.5877   20.8941   -6.0434 H         1 MOL1        0.0906
     97  H           3.0574   15.8002   -2.6645 H         1 MOL1        0.0618
     98  H           2.6898   16.0282   -4.5697 H         1 MOL1        0.0618
     99  H           1.6951   14.7011   -3.5267 H         1 MOL1        0.0618
    100  H          -5.0749   13.3778   -9.2690 H         1 MOL1        0.3291
@<TRIPOS>BOND
     1      1      2 1 
     2      1      6 1 
     3      2      3 1 
     4      3      4 1 
     5      4      5 1 
     6      4      7 1 
     7      5      6 1 
     8      7      8 1 
     9      8      9 1 
    10      8     51 1 
    11      9     10 1 
    12     10     11 ar
    13     10     14 ar
    14     11     12 ar
    15     11     37 1 
    16     12     13 ar
    17     12     34 1 
    18     13     14 ar
    19     13     15 1 
    20     15     16 ar
    21     15     20 ar
    22     16     17 ar
    23     17     18 ar
    24     18     19 ar
    25     18     30 1 
    26     19     20 ar
    27     19     21 1 
    28     21     22 1 
    29     22     23 1 
    30     23     24 1 
    31     24     25 1 
    32     24     29 1 
    33     25     26 1 
    34     26     27 1 
    35     27     28 1 
    36     27     42 1 
    37     28     29 1 
    38     30     31 1 
    39     30     32 1 
    40     30     33 1 
    41     34     35 1 
    42     35     36 1 
    43     35     38 1 
    44     36     37 1 
    45     38     39 2 
    46     38     40 2 
    47     38     41 1 
    48     43      1 1 
    49     43     48 ar
    50     44     43 ar
    51     45     44 ar
    52     46     45 ar
    53     47     46 ar
    54     48     47 ar
    55     49     44 1 
    56     50     49 1 
    57      1     52 1 
    58      2     53 1 
    59      2     54 1 
    60      3     55 1 
    61      3     56 1 
    62      5     57 1 
    63      5     58 1 
    64      6     59 1 
    65      6     60 1 
    66      7     61 1 
    67      7     62 1 
    68      8     63 1 
    69      9     64 1 
    70      9     65 1 
    71     16     66 1 
    72     17     67 1 
    73     20     68 1 
    74     22     69 1 
    75     22     70 1 
    76     23     71 1 
    77     23     72 1 
    78     25     73 1 
    79     25     74 1 
    80     26     75 1 
    81     26     76 1 
    82     28     77 1 
    83     28     78 1 
    84     29     79 1 
    85     29     80 1 
    86     34     81 1 
    87     34     82 1 
    88     36     83 1 
    89     36     84 1 
    90     37     85 1 
    91     37     86 1 
    92     41     87 1 
    93     41     88 1 
    94     41     89 1 
    95     51    100 1 
    96     90     27 1 
    97     91      4 1 
    98     92     24 1 
    99     93     48 1 
   100     94     45 1 
   101     95     46 1 
   102     96     47 1 
   103     97     50 1 
   104     98     50 1 
   105     99     50 1 
@<TRIPOS>SUBSTRUCTURE
     1 MOL1         1 MOLECULE          1 A
