@<TRIPOS>MOLECULE
CatS_176
 96 100 0 0 0
SMALL
GASTEIGER

@<TRIPOS>ATOM
      1 C           1.3871   17.6881   -4.5414 C.3     1  LIG1       -0.0361
      2 C           0.2859   17.5008   -5.3040 C.3     1  LIG1        0.0637
      3 C          -0.1249   16.1700   -5.7827 C.3     1  LIG1       -0.0031
      4 C          -1.1913   15.5857   -4.8379 C.3     1  LIG1       -0.0069
      5 C          -1.6668   14.2213   -5.3740 C.3     1  LIG1       -0.0315
      6 N          -2.2336   14.3439   -6.7310 N.4     1  LIG1        0.2371
      7 C          -1.2231   14.8909   -7.6591 C.3     1  LIG1       -0.0315
      8 C          -0.7222   16.2748   -7.1989 C.3     1  LIG1       -0.0069
      9 C          -2.7051   13.0260   -7.1971 C.3     1  LIG1       -0.0035
     10 C          -3.4130   13.0568   -8.5708 C.3     1  LIG1        0.1142
     11 C          -3.3396   11.6550   -9.2001 C.3     1  LIG1        0.0728
     12 N          -4.3392   10.6961   -8.7087 N.ar    1  LIG1       -0.2647
     13 C          -5.5310   10.3251   -9.2410 C.ar    1  LIG1        0.0456
     14 C          -6.2052    9.4821   -8.4579 C.ar    1  LIG1        0.0168
     15 C          -5.3400    9.2805   -7.3580 C.ar    1  LIG1        0.0975
     16 N          -4.2646   10.0227   -7.5357 N.ar    1  LIG1       -0.1706
     17 C          -5.5281    8.4128   -6.2062 C.ar    1  LIG1        0.0035
     18 C          -4.4677    7.7389   -5.6282 C.ar    1  LIG1       -0.0519
     19 C          -4.6602    6.9418   -4.5283 C.ar    1  LIG1       -0.0484
     20 C          -5.9103    6.7700   -3.9697 C.ar    1  LIG1        0.0682
     21 C          -6.9758    7.4401   -4.5580 C.ar    1  LIG1        0.0203
     22 C          -6.7839    8.2537   -5.6506 C.ar    1  LIG1       -0.0385
     23 S          -8.6624    7.2888   -3.9528 S.3     1  LIG1       -0.1194
     24 C          -9.2127    8.9474   -3.4728 C.3     1  LIG1        0.0385
     25 C          -8.0195    9.8150   -3.0206 C.3     1  LIG1       -0.0224
     26 N          -8.4072   10.8678   -2.0650 N.4     1  LIG1        0.2361
     27 C          -9.7689   11.3444   -2.3739 C.3     1  LIG1       -0.0263
     28 C         -10.2313   12.4114   -1.3619 C.3     1  LIG1        0.0511
     29 C          -9.2441   13.5921   -1.3597 C.3     1  LIG1        0.2585
     30 C          -7.8200   13.0741   -1.0856 C.3     1  LIG1        0.0511
     31 C          -7.4531   11.9951   -2.1228 C.3     1  LIG1       -0.0263
     32 C          -5.9448    5.8567   -2.7423 C.3     1  LIG1        0.4184
     33 F          -4.9473    4.8881   -2.7813 F       1  LIG1       -0.1659
     34 F          -7.1419    5.1655   -2.5932 F       1  LIG1       -0.1659
     35 F          -5.7380    6.5909   -1.5778 F       1  LIG1       -0.1659
     36 C          -7.5839    8.9487   -8.8239 C.3     1  LIG1        0.0489
     37 N          -8.2562    9.7458   -9.8749 N.3     1  LIG1       -0.1766
     38 C          -7.3183    9.9449  -11.0008 C.3     1  LIG1        0.0259
     39 C          -6.0941   10.7929  -10.5730 C.3     1  LIG1        0.0041
     40 S          -9.7909    9.3103  -10.1697 S.O2    1  LIG1        0.0293
     41 O          -9.8658    7.9422   -9.7662 O.2     1  LIG1       -0.1583
     42 O         -10.0690    9.5800  -11.5450 O.2     1  LIG1       -0.1583
     43 C         -10.9189   10.2892   -9.1311 C.3     1  LIG1        0.0707
     44 F          -9.5605   14.3841   -0.5171 F       1  LIG1       -0.2052
     45 O          -0.6190   18.0802   -4.7689 O.3     1  LIG1       -0.3888
     46 F          -9.2639   14.1291   -2.4332 F       1  LIG1       -0.2052
     47 C           0.4901   18.1901   -6.2667 C.3     1  LIG1       -0.0361
     48 O          -4.5659   13.3631   -8.4240 O.3     1  LIG1       -0.3847
     49 H          -2.8849   13.8321   -9.3199 H       1  LIG1        0.0665
     50 H           0.8138   15.4249   -5.8330 H       1  LIG1        0.0332
     51 H          -0.7251   15.4541   -3.7392 H       1  LIG1        0.0320
     52 H          -2.1308   16.3300   -4.7860 H       1  LIG1        0.0320
     53 H          -2.5057   13.8240   -4.6130 H       1  LIG1        0.0814
     54 H          -0.7427   13.4539   -5.3882 H       1  LIG1        0.0814
     55 H          -1.7002   15.0319   -8.7498 H       1  LIG1        0.0814
     56 H          -0.2801   14.1496   -7.7231 H       1  LIG1        0.0814
     57 H           0.1171   16.6710   -7.9592 H       1  LIG1        0.0320
     58 H          -1.6449   17.0421   -7.1909 H       1  LIG1        0.0320
     59 H          -3.5302   12.6209   -6.4257 H       1  LIG1        0.0841
     60 H          -1.8131   12.2239   -7.2247 H       1  LIG1        0.0841
     61 H          -3.4749   11.7687  -10.3870 H       1  LIG1        0.0536
     62 H          -2.2549   11.1928   -8.9840 H       1  LIG1        0.0536
     63 H          -3.5487    7.8381   -6.0090 H       1  LIG1        0.0624
     64 H          -3.8721    6.4759   -4.1253 H       1  LIG1        0.0624
     65 H          -7.5648    8.7322   -6.0516 H       1  LIG1        0.0635
     66 H          -9.7313    9.4498   -4.4320 H       1  LIG1        0.0432
     67 H         -10.0244    8.8691   -2.5915 H       1  LIG1        0.0432
     68 H          -7.5947   10.3442   -4.0120 H       1  LIG1        0.0823
     69 H          -7.1415    9.1330   -2.5672 H       1  LIG1        0.0823
     70 H         -10.5488   10.4349   -2.3162 H       1  LIG1        0.0816
     71 H          -9.7885   11.8010   -3.4838 H       1  LIG1        0.0816
     72 H         -10.2650   11.9167   -0.2701 H       1  LIG1        0.0375
     73 H         -11.3257   12.8011   -1.6600 H       1  LIG1        0.0375
     74 H          -7.0420   13.9839   -1.1571 H       1  LIG1        0.0375
     75 H          -7.7745   12.5991    0.0151 H       1  LIG1        0.0375
     76 H          -7.4589   12.4815   -3.2209 H       1  LIG1        0.0816
     77 H          -6.3403   11.6216   -1.8748 H       1  LIG1        0.0816
     78 H          -7.4860    7.8080   -9.1821 H       1  LIG1        0.0494
     79 H          -8.2802    8.9949   -7.8457 H       1  LIG1        0.0494
     80 H          -6.9429    8.8782  -11.4009 H       1  LIG1        0.0448
     81 H          -7.8698   10.5231  -11.8949 H       1  LIG1        0.0448
     82 H          -6.4275   11.9410  -10.4691 H       1  LIG1        0.0341
     83 H          -5.2559   10.6982  -11.4261 H       1  LIG1        0.0341
     84 H         -11.0143   11.4131   -9.5422 H       1  LIG1        0.0479
     85 H         -12.0136    9.7991   -9.1411 H       1  LIG1        0.0479
     86 H         -10.5204   10.3164   -7.9994 H       1  LIG1        0.0479
     87 H          -2.9460   14.9137   -6.7056 H       1  LIG1        0.2034
     88 H          -8.4052   10.5167   -1.2234 H       1  LIG1        0.2034
     89 H           2.3901   17.3078   -5.0851 H       1  LIG1        0.0257
     90 H           1.2990   16.9586   -3.5907 H       1  LIG1        0.0257
     91 H           1.6174   18.7805   -4.0893 H       1  LIG1        0.0257
     92 H           1.3911   17.7595   -6.9400 H       1  LIG1        0.0257
     93 H          -0.3905   18.5739   -6.9904 H       1  LIG1        0.0257
     94 H           0.9697   19.2749   -6.0429 H       1  LIG1        0.0257
     95 H          -1.4505   18.0963   -5.3363 H       1  LIG1        0.2101
     96 H          -5.0642   13.3432   -9.2977 H       1  LIG1        0.2101
@<TRIPOS>BOND
     1     1     2    1
     2     2     3    1
     3     3     4    1
     4     3     8    1
     5     3    50    1
     6     4     5    1
     7     4    51    1
     8     4    52    1
     9     5     6    1
    10     5    53    1
    11     5    54    1
    12     6     7    1
    13     6     9    1
    14     6    87    1
    15     7     8    1
    16     7    55    1
    17     7    56    1
    18     8    57    1
    19     8    58    1
    20     9    10    1
    21     9    59    1
    22     9    60    1
    23    10    11    1
    24    10    48    1
    25    10    49    1
    26    11    12    1
    27    11    61    1
    28    11    62    1
    29    12    13   ar
    30    12    16   ar
    31    13    14   ar
    32    13    39    1
    33    14    15   ar
    34    14    36    1
    35    15    16   ar
    36    15    17    1
    37    17    18   ar
    38    17    22   ar
    39    18    19   ar
    40    18    63    1
    41    19    20   ar
    42    19    64    1
    43    20    21   ar
    44    20    32    1
    45    21    22   ar
    46    21    23    1
    47    22    65    1
    48    23    24    1
    49    24    25    1
    50    24    66    1
    51    24    67    1
    52    25    26    1
    53    25    68    1
    54    25    69    1
    55    26    27    1
    56    26    31    1
    57    27    28    1
    58    27    70    1
    59    27    71    1
    60    28    29    1
    61    28    72    1
    62    28    73    1
    63    29    30    1
    64    29    44    1
    65    29    46    1
    66    30    31    1
    67    30    74    1
    68    30    75    1
    69    31    76    1
    70    31    77    1
    71    32    33    1
    72    32    34    1
    73    32    35    1
    74    36    37    1
    75    36    78    1
    76    36    79    1
    77    37    38    1
    78    37    40    1
    79    38    39    1
    80    38    80    1
    81    38    81    1
    82    39    82    1
    83    39    83    1
    84    40    41    2
    85    40    42    2
    86    40    43    1
    87    43    84    1
    88    43    85    1
    89    43    86    1
    90    45     2    1
    91    47     2    1
    92    48    96    1
    93    88    26    1
    94    89     1    1
    95    90     1    1
    96    91     1    1
    97    92    47    1
    98    93    47    1
    99    94    47    1
   100    95    45    1
