# Molecule written by the XED library from Cresset
@<TRIPOS>MOLECULE
CatS_177
    92     96      1
SMALL
USER_CHARGES
@<TRIPOS>ATOM
      1  N1          0.2859   17.5008   -5.3041 C.3       1 MOL1       -0.1161
      2  C4         -0.1250   16.1701   -5.7827 C.3       1 MOL1       -0.0443
      3  C5         -1.1912   15.5858   -4.8378 C.3       1 MOL1       -0.0762
      4  C6         -1.6668   14.2214   -5.3739 C.3       1 MOL1       -0.0619
      5  N2         -2.2336   14.3439   -6.7310 N.4       1 MOL1       -0.2282
      6  C7         -1.2231   14.8910   -7.6590 C.3       1 MOL1       -0.0619
      7  C8         -0.7221   16.2748   -7.1990 C.3       1 MOL1       -0.0762
      8  C9         -2.7051   13.0260   -7.1972 C.3       1 MOL1       -0.0328
      9  C10        -3.4130   13.0568   -8.5709 C.3       1 MOL1        0.0191
     10  C11        -3.3394   11.6551   -9.2000 C.3       1 MOL1        0.0979
     11  N3         -4.3392   10.6960   -8.7087 N.pl3     1 MOL1       -0.0670
     12  C12        -5.5310   10.3252   -9.2410 C.ar      1 MOL1        0.0572
     13  C13        -6.2051    9.4820   -8.4579 C.ar      1 MOL1       -0.0684
     14  C14        -5.3399    9.2804   -7.3580 C.ar      1 MOL1        0.0392
     15  N4         -4.2646   10.0228   -7.5357 N.2       1 MOL1       -0.2943
     16  C15        -5.5280    8.4129   -6.2061 C.ar      1 MOL1       -0.0066
     17  C16        -4.4677    7.7388   -5.6281 C.ar      1 MOL1       -0.0846
     18  C17        -4.6602    6.9418   -4.5283 C.ar      1 MOL1       -0.0687
     19  C18        -5.9104    6.7700   -3.9697 C.ar      1 MOL1        0.0171
     20  C19        -6.9757    7.4401   -4.5580 C.ar      1 MOL1        0.0480
     21  C20        -6.7840    8.2535   -5.6507 C.ar      1 MOL1       -0.0655
     22  S1         -8.6624    7.2887   -3.9528 S.3       1 MOL1       -0.1783
     23  C21        -9.2127    8.9475   -3.4728 C.3       1 MOL1       -0.0087
     24  C22        -8.0195    9.8150   -3.0206 C.3       1 MOL1       -0.0441
     25  N5         -8.4072   10.8678   -2.0651 N.4       1 MOL1       -0.2282
     26  C23        -9.7689   11.3444   -2.3739 C.3       1 MOL1       -0.0507
     27  C24       -10.2314   12.4114   -1.3619 C.3       1 MOL1       -0.0181
     28  C25        -9.2441   13.5921   -1.3597 C.3       1 MOL1        0.1870
     29  C26        -7.8200   13.0742   -1.0857 C.3       1 MOL1       -0.0181
     30  C27        -7.4532   11.9952   -2.1228 C.3       1 MOL1       -0.0507
     31  C28        -5.9448    5.8567   -2.7425 C.3       1 MOL1        0.4149
     32  F1         -4.9474    4.8881   -2.7813 F         1 MOL1       -0.1514
     33  F2         -7.1418    5.1655   -2.5932 F         1 MOL1       -0.1514
     34  F3         -5.7379    6.5909   -1.5778 F         1 MOL1       -0.1514
     35  C29        -7.5839    8.9488   -8.8239 C.3       1 MOL1        0.1169
     36  N6         -8.2562    9.7457   -9.8749 N.3       1 MOL1       -0.4606
     37  C30        -7.3183    9.9450  -11.0007 C.3       1 MOL1        0.0844
     38  C31        -6.0940   10.7928  -10.5730 C.3       1 MOL1       -0.0158
     39  S2         -9.7908    9.3103  -10.1697 S.3       1 MOL1        0.4316
     40  O3         -9.8658    7.9422   -9.7662 O.2       1 MOL1       -0.3139
     41  O4        -10.0688    9.5800  -11.5450 O.2       1 MOL1       -0.3139
     42  C32       -10.9189   10.2892   -9.1311 C.3       1 MOL1        0.0421
     43  H33        -9.5606   14.3841   -0.5170 F         1 MOL1       -0.1808
     44  H34        -9.2639   14.1291   -2.4332 F         1 MOL1       -0.1808
     45  H18        -4.5660   13.3630   -8.4240 O.3       1 MOL1       -0.4408
     46  H7          0.8139   15.4249   -5.8330 C.3       1 MOL1       -0.1161
     47  C3          1.3871   17.6881   -4.5414 H         1 MOL1        0.0438
     48  H           0.4901   18.1903   -6.2668 H         1 MOL1        0.0438
     49  H          -0.6189   18.0802   -4.7689 H         1 MOL1        0.0438
     50  H19        -2.8848   13.8321   -9.3200 H         1 MOL1        0.0680
     51  H8         -0.7250   15.4542   -3.7393 H         1 MOL1        0.0472
     52  H9         -2.1308   16.3301   -4.7861 H         1 MOL1        0.0472
     53  H10        -2.5057   13.8241   -4.6131 H         1 MOL1        0.0529
     54  H11        -0.7427   13.4540   -5.3883 H         1 MOL1        0.0529
     55  H12        -1.7001   15.0318   -8.7497 H         1 MOL1        0.0529
     56  H13        -0.2800   14.1497   -7.7230 H         1 MOL1        0.0529
     57  H14         0.1170   16.6709   -7.9592 H         1 MOL1        0.0472
     58  H15        -1.6447   17.0422   -7.1909 H         1 MOL1        0.0472
     59  H16        -3.5302   12.6209   -6.4258 H         1 MOL1        0.0549
     60  H17        -1.8130   12.2240   -7.2246 H         1 MOL1        0.0549
     61  H20        -3.4750   11.7687  -10.3869 H         1 MOL1        0.0624
     62  H21        -2.2550   11.1928   -8.9840 H         1 MOL1        0.0624
     63  H22        -3.5488    7.8381   -6.0089 H         1 MOL1        0.0910
     64  H23        -3.8720    6.4759   -4.1254 H         1 MOL1        0.0908
     65  H24        -7.5648    8.7321   -6.0515 H         1 MOL1        0.0929
     66  H25        -9.7313    9.4497   -4.4319 H         1 MOL1        0.0553
     67  H26       -10.0245    8.8692   -2.5915 H         1 MOL1        0.0553
     68  H27        -7.5945   10.3440   -4.0121 H         1 MOL1        0.0547
     69  H28        -7.1414    9.1331   -2.5671 H         1 MOL1        0.0547
     70  H29       -10.5489   10.4348   -2.3163 H         1 MOL1        0.0529
     71  H30        -9.7886   11.8012   -3.4837 H         1 MOL1        0.0529
     72  H31       -10.2650   11.9167   -0.2701 H         1 MOL1        0.0526
     73  H32       -11.3256   12.8012   -1.6600 H         1 MOL1        0.0526
     74  H35        -7.0420   13.9839   -1.1570 H         1 MOL1        0.0526
     75  H36        -7.7746   12.5991    0.0153 H         1 MOL1        0.0526
     76  H37        -7.4589   12.4816   -3.2209 H         1 MOL1        0.0529
     77  H38        -6.3403   11.6215   -1.8747 H         1 MOL1        0.0529
     78  H39        -7.4860    7.8079   -9.1821 H         1 MOL1        0.0628
     79  H40        -8.2802    8.9950   -7.8457 H         1 MOL1        0.0628
     80  H41        -6.9430    8.8781  -11.4009 H         1 MOL1        0.0601
     81  H42        -7.8699   10.5231  -11.8949 H         1 MOL1        0.0601
     82  H43        -6.4275   11.9410  -10.4690 H         1 MOL1        0.0516
     83  H44        -5.2559   10.6981  -11.4261 H         1 MOL1        0.0516
     84  H45       -11.0144   11.4131   -9.5422 H         1 MOL1        0.0588
     85  H46       -12.0135    9.7992   -9.1411 H         1 MOL1        0.0588
     86  H47       -10.5203   10.3164   -7.9993 H         1 MOL1        0.0588
     87  H          -2.9462   14.9137   -6.7057 H         1 MOL1        0.1922
     88  H          -8.4052   10.5167   -1.2234 H         1 MOL1        0.1922
     89  H          -5.0642   13.3432   -9.2977 H         1 MOL1        0.3291
     90  H           1.8350   16.0564   -5.8008 H         1 MOL1        0.0438
     91  H           1.1432   14.8261   -6.8105 H         1 MOL1        0.0438
     92  H           0.9565   14.7038   -4.8833 H         1 MOL1        0.0438
@<TRIPOS>BOND
     1      2      1 1 
     2      3      2 1 
     3      4      3 1 
     4      5      4 1 
     5      6      5 1 
     6      7      2 1 
     7      7      6 1 
     8      8      5 1 
     9      9      8 1 
    10     10      9 1 
    11     11     10 1 
    12     12     11 ar
    13     13     12 ar
    14     14     13 ar
    15     15     11 ar
    16     15     14 ar
    17     16     14 1 
    18     17     16 ar
    19     18     17 ar
    20     19     18 ar
    21     20     19 ar
    22     21     16 ar
    23     21     20 ar
    24     22     20 1 
    25     23     22 1 
    26     24     23 1 
    27     25     24 1 
    28     26     25 1 
    29     27     26 1 
    30     28     27 1 
    31     29     28 1 
    32     30     25 1 
    33     30     29 1 
    34     31     19 1 
    35     32     31 1 
    36     33     31 1 
    37     34     31 1 
    38     35     13 1 
    39     36     35 1 
    40     37     36 1 
    41     38     12 1 
    42     38     37 1 
    43     39     36 1 
    44     40     39 2 
    45     41     39 2 
    46     42     39 1 
    47     43     28 1 
    48     44     28 1 
    49     45      9 1 
    50     46      2 1 
    51      1     47 1 
    52      1     48 1 
    53      1     49 1 
    54      5     87 1 
    55     25     88 1 
    56     46     90 1 
    57     46     91 1 
    58     46     92 1 
    59     50      9 1 
    60     51      3 1 
    61     52      3 1 
    62     53      4 1 
    63     54      4 1 
    64     55      6 1 
    65     56      6 1 
    66     57      7 1 
    67     58      7 1 
    68     59      8 1 
    69     60      8 1 
    70     61     10 1 
    71     62     10 1 
    72     63     17 1 
    73     64     18 1 
    74     65     21 1 
    75     66     23 1 
    76     67     23 1 
    77     68     24 1 
    78     69     24 1 
    79     70     26 1 
    80     71     26 1 
    81     72     27 1 
    82     73     27 1 
    83     74     29 1 
    84     75     29 1 
    85     76     30 1 
    86     77     30 1 
    87     78     35 1 
    88     79     35 1 
    89     80     37 1 
    90     81     37 1 
    91     82     38 1 
    92     83     38 1 
    93     84     42 1 
    94     85     42 1 
    95     86     42 1 
    96     89     45 1 
@<TRIPOS>SUBSTRUCTURE
     1 MOL1         1 MOLECULE          1 A
