CatS_142
 OpenBabel05281909343D

 87 91  0  0  1  0  0  0  0  0999 V2000
   -4.4862    7.5392   -5.7132 C   0  0  0  0  0  0  0  0  0  0  0  0
   -4.6601    6.7109   -4.6311 C   0  0  0  0  0  0  0  0  0  0  0  0
   -5.8700    6.6380   -3.9732 C   0  0  0  0  0  0  0  0  0  0  0  0
   -6.9109    7.4268   -4.4418 C   0  0  0  0  0  0  0  0  0  0  0  0
   -6.7442    8.2479   -5.5342 C   0  0  0  0  0  0  0  0  0  0  0  0
   -5.5263    8.3209   -6.1831 C   0  0  0  0  0  0  0  0  0  0  0  0
   -5.3730    9.2152   -7.3199 C   0  0  0  0  0  0  0  0  0  0  0  0
   -6.3012    9.5349   -8.3339 C   0  0  0  0  0  0  0  0  0  0  0  0
   -5.6321   10.3809   -9.1234 C   0  0  0  0  0  0  0  0  0  0  0  0
   -4.3651   10.6259   -8.6809 N   0  0  0  0  0  0  0  0  0  0  0  0
   -4.2578    9.8690   -7.5652 N   0  0  0  0  0  0  0  0  0  0  0  0
   -3.2820   11.5018   -9.1681 C   0  0  0  0  0  0  0  0  0  0  0  0
   -3.0351   12.9249   -8.6221 C   0  0  2  0  0  0  0  0  0  0  0  0
   -2.4582   12.8949   -7.1939 C   0  0  0  0  0  0  0  0  0  0  0  0
   -2.1130   14.2739   -6.7860 N   0  3  0  0  0  0  0  0  0  0  0  0
   -1.2461   14.9390   -7.7821 C   0  0  0  0  0  0  0  0  0  0  0  0
   -0.9278   16.3790   -7.3870 C   0  0  0  0  0  0  0  0  0  0  0  0
   -0.3051   16.4250   -5.9978 C   0  0  0  0  0  0  0  0  0  0  0  0
   -1.2031   15.7169   -4.9989 C   0  0  0  0  0  0  0  0  0  0  0  0
   -1.4792   14.2951   -5.4641 C   0  0  0  0  0  0  0  0  0  0  0  0
   -4.2610   13.6691   -8.5963 O   0  0  0  0  0  0  0  0  0  0  0  0
   -6.2651   10.9469  -10.3860 C   0  0  0  0  0  0  0  0  0  0  0  0
   -7.7959   10.7439  -10.4582 C   0  0  0  0  0  0  0  0  0  0  0  0
   -8.2500    9.4451   -9.9048 N   0  0  0  0  0  0  0  0  0  0  0  0
   -7.7319    9.0717   -8.5741 C   0  0  0  0  0  0  0  0  0  0  0  0
   -9.1622    8.6351  -10.4910 C   0  0  0  0  0  0  0  0  0  0  0  0
   -9.1648    7.4181  -10.3569 O   0  0  0  0  0  0  0  0  0  0  0  0
   -8.5191    7.4481   -3.6401 S   0  0  0  0  0  0  0  0  0  0  0  0
   -9.0883    9.1671   -3.5891 C   0  0  0  0  0  0  0  0  0  0  0  0
   -7.9859   10.0771   -3.0061 C   0  0  0  0  0  0  0  0  0  0  0  0
   -8.4741   11.0242   -1.9848 N   0  3  2  0  0  0  0  0  0  0  0  0
   -9.7343   11.6310   -2.4139 C   0  0  0  0  0  0  0  0  0  0  0  0
  -10.2920   12.5449   -1.3272 C   0  0  0  0  0  0  0  0  0  0  0  0
   -9.3059   13.6378   -0.9381 C   0  0  2  0  0  0  0  0  0  0  0  0
   -7.9539   13.0169   -0.6358 C   0  0  0  0  0  0  0  0  0  0  0  0
   -7.4939   12.0830   -1.7473 C   0  0  0  0  0  0  0  0  0  0  0  0
   -5.9540    5.6900   -2.7789 C   0  0  0  0  0  0  0  0  0  0  0  0
   -5.8198    6.3781   -1.5789 F   0  0  0  0  0  0  0  0  0  0  0  0
   -7.1847    5.0440   -2.7509 F   0  0  0  0  0  0  0  0  0  0  0  0
   -4.9793    4.6959   -2.7842 F   0  0  0  0  0  0  0  0  0  0  0  0
   -9.7173   14.1889    0.0450 F   0  0  0  0  0  0  0  0  0  0  0  0
   -9.8176    9.0192  -11.1326 N   0  0  0  0  0  0  0  0  0  0  0  0
  -10.3385    8.4887  -11.6079 C   0  0  0  0  0  0  0  0  0  0  0  0
   -9.1951   14.5601   -1.9738 H   0  0  0  0  0  0  0  0  0  0  0  0
   -2.2380   13.4761   -9.3290 H   0  0  0  0  0  0  0  0  0  0  0  0
   -3.5971    7.5730   -6.1659 H   0  0  0  0  0  0  0  0  0  0  0  0
   -3.8921    6.1560   -4.3162 H   0  0  0  0  0  0  0  0  0  0  0  0
   -7.5099    8.8059   -5.8541 H   0  0  0  0  0  0  0  0  0  0  0  0
   -2.2557   10.8948   -9.0271 H   0  0  0  0  0  0  0  0  0  0  0  0
   -3.4737   11.6018  -10.3480 H   0  0  0  0  0  0  0  0  0  0  0  0
   -3.2399   12.3630   -6.4550 H   0  0  0  0  0  0  0  0  0  0  0  0
   -1.4850   12.1940   -7.2511 H   0  0  0  0  0  0  0  0  0  0  0  0
   -0.2439   14.3011   -7.9562 H   0  0  0  0  0  0  0  0  0  0  0  0
   -1.8489   14.9609   -8.8191 H   0  0  0  0  0  0  0  0  0  0  0  0
   -0.1580   16.8700   -8.1651 H   0  0  0  0  0  0  0  0  0  0  0  0
   -1.9400   17.0230   -7.3741 H   0  0  0  0  0  0  0  0  0  0  0  0
   -0.1761   17.5701   -5.6630 H   0  0  0  0  0  0  0  0  0  0  0  0
    0.7699   15.8920   -6.0171 H   0  0  0  0  0  0  0  0  0  0  0  0
   -2.2421   16.3121   -4.9179 H   0  0  0  0  0  0  0  0  0  0  0  0
   -0.6710   15.7250   -3.9250 H   0  0  0  0  0  0  0  0  0  0  0  0
   -0.4577   13.6638   -5.4441 H   0  0  0  0  0  0  0  0  0  0  0  0
   -2.2312   13.8080   -4.6658 H   0  0  0  0  0  0  0  0  0  0  0  0
   -4.1120   14.6071   -8.2650 H   0  0  0  0  0  0  0  0  0  0  0  0
   -6.0529   12.1222  -10.4688 H   0  0  0  0  0  0  0  0  0  0  0  0
   -5.7721   10.3860  -11.3250 H   0  0  0  0  0  0  0  0  0  0  0  0
   -8.1117   10.9422  -11.5962 H   0  0  0  0  0  0  0  0  0  0  0  0
   -8.3141   11.5920   -9.7849 H   0  0  0  0  0  0  0  0  0  0  0  0
   -8.4471    9.5699   -7.7480 H   0  0  0  0  0  0  0  0  0  0  0  0
   -7.7660    7.8780   -8.4602 H   0  0  0  0  0  0  0  0  0  0  0  0
  -10.0801    9.2619   -2.9210 H   0  0  0  0  0  0  0  0  0  0  0  0
   -9.3421    9.4981   -4.7150 H   0  0  0  0  0  0  0  0  0  0  0  0
   -7.1079    9.4010   -2.5439 H   0  0  0  0  0  0  0  0  0  0  0  0
   -7.5292   10.7101   -3.9190 H   0  0  0  0  0  0  0  0  0  0  0  0
  -10.5091   10.7479   -2.6622 H   0  0  0  0  0  0  0  0  0  0  0  0
   -9.5521   12.2629   -3.4192 H   0  0  0  0  0  0  0  0  0  0  0  0
  -11.2779   13.0980   -1.7302 H   0  0  0  0  0  0  0  0  0  0  0  0
  -10.5781   11.9111   -0.3479 H   0  0  0  0  0  0  0  0  0  0  0  0
   -8.0539   12.4062    0.3931 H   0  0  0  0  0  0  0  0  0  0  0  0
   -7.1287   13.8768   -0.4889 H   0  0  0  0  0  0  0  0  0  0  0  0
   -7.3410   12.6999   -2.7652 H   0  0  0  0  0  0  0  0  0  0  0  0
   -6.4350   11.6082   -1.4361 H   0  0  0  0  0  0  0  0  0  0  0  0
   -2.8878   14.7486   -6.7174 H   0  0  0  0  0  0  0  0  0  0  0  0
   -8.6153   10.5657   -1.2092 H   0  0  0  0  0  0  0  0  0  0  0  0
   -9.9129    9.8879  -11.2188 H   0  0  0  0  0  0  0  0  0  0  0  0
  -11.1047    7.8590  -10.9208 H   0  0  0  0  0  0  0  0  0  0  0  0
  -11.0789    9.0251  -12.4020 H   0  0  0  0  0  0  0  0  0  0  0  0
   -9.7135    7.7402  -12.3184 H   0  0  0  0  0  0  0  0  0  0  0  0
  1  2  2  0  0  0  0
  1  6  1  0  0  0  0
  1 46  1  0  0  0  0
  2  3  1  0  0  0  0
  2 47  1  0  0  0  0
  3  4  2  0  0  0  0
  3 37  1  0  0  0  0
  4  5  1  0  0  0  0
  4 28  1  0  0  0  0
  5  6  2  0  0  0  0
  5 48  1  0  0  0  0
  6  7  1  0  0  0  0
  7  8  1  0  0  0  0
  7 11  2  0  0  0  0
  8  9  2  0  0  0  0
  8 25  1  0  0  0  0
  9 10  1  0  0  0  0
  9 22  1  0  0  0  0
 10 11  1  0  0  0  0
 10 12  1  0  0  0  0
 12 13  1  0  0  0  0
 12 49  1  0  0  0  0
 12 50  1  0  0  0  0
 13 14  1  0  0  0  0
 13 21  1  0  0  0  0
 13 45  1  6  0  0  0
 14 15  1  0  0  0  0
 14 51  1  0  0  0  0
 14 52  1  0  0  0  0
 15 16  1  0  0  0  0
 15 20  1  0  0  0  0
 15 82  1  0  0  0  0
 16 17  1  0  0  0  0
 16 53  1  0  0  0  0
 16 54  1  0  0  0  0
 17 18  1  0  0  0  0
 17 55  1  0  0  0  0
 17 56  1  0  0  0  0
 18 19  1  0  0  0  0
 18 57  1  0  0  0  0
 18 58  1  0  0  0  0
 19 20  1  0  0  0  0
 19 59  1  0  0  0  0
 19 60  1  0  0  0  0
 20 61  1  0  0  0  0
 20 62  1  0  0  0  0
 21 63  1  0  0  0  0
 22 23  1  0  0  0  0
 22 64  1  0  0  0  0
 22 65  1  0  0  0  0
 23 24  1  0  0  0  0
 23 66  1  0  0  0  0
 23 67  1  0  0  0  0
 24 25  1  0  0  0  0
 24 26  1  0  0  0  0
 25 68  1  0  0  0  0
 25 69  1  0  0  0  0
 26 27  2  0  0  0  0
 28 29  1  0  0  0  0
 29 30  1  0  0  0  0
 29 70  1  0  0  0  0
 29 71  1  0  0  0  0
 30 31  1  0  0  0  0
 30 72  1  0  0  0  0
 30 73  1  0  0  0  0
 31 32  1  0  0  0  0
 31 36  1  0  0  0  0
 31 83  1  1  0  0  0
 32 33  1  0  0  0  0
 32 74  1  0  0  0  0
 32 75  1  0  0  0  0
 33 34  1  0  0  0  0
 33 76  1  0  0  0  0
 33 77  1  0  0  0  0
 34 35  1  0  0  0  0
 34 41  1  0  0  0  0
 34 44  1  6  0  0  0
 35 36  1  0  0  0  0
 35 78  1  0  0  0  0
 35 79  1  0  0  0  0
 36 80  1  0  0  0  0
 36 81  1  0  0  0  0
 37 38  1  0  0  0  0
 37 39  1  0  0  0  0
 37 40  1  0  0  0  0
 42 26  1  0  0  0  0
 43 42  1  0  0  0  0
 84 42  1  0  0  0  0
 85 43  1  0  0  0  0
 86 43  1  0  0  0  0
 87 43  1  0  0  0  0
M  CHG  2  15   1  31   1
M  END
$$$$
