CatS_165
 OpenBabel05281909343D

102106  0  0  1  0  0  0  0  0999 V2000
   -4.4861    7.5392   -5.7132 C   0  0  0  0  0  0  0  0  0  0  0  0
   -4.6600    6.7109   -4.6310 C   0  0  0  0  0  0  0  0  0  0  0  0
   -5.8700    6.6380   -3.9732 C   0  0  0  0  0  0  0  0  0  0  0  0
   -6.9109    7.4268   -4.4418 C   0  0  0  0  0  0  0  0  0  0  0  0
   -6.7442    8.2479   -5.5342 C   0  0  0  0  0  0  0  0  0  0  0  0
   -5.5263    8.3209   -6.1831 C   0  0  0  0  0  0  0  0  0  0  0  0
   -5.3730    9.2152   -7.3200 C   0  0  0  0  0  0  0  0  0  0  0  0
   -6.3012    9.5348   -8.3339 C   0  0  0  0  0  0  0  0  0  0  0  0
   -5.6320   10.3810   -9.1234 C   0  0  0  0  0  0  0  0  0  0  0  0
   -4.3650   10.6260   -8.6810 N   0  0  0  0  0  0  0  0  0  0  0  0
   -4.2578    9.8689   -7.5651 N   0  0  0  0  0  0  0  0  0  0  0  0
   -3.2820   11.5017   -9.1681 C   0  0  0  0  0  0  0  0  0  0  0  0
   -3.0352   12.9249   -8.6221 C   0  0  2  0  0  0  0  0  0  0  0  0
   -2.4581   12.8948   -7.1940 C   0  0  0  0  0  0  0  0  0  0  0  0
   -2.1131   14.2738   -6.7859 N   0  3  0  0  0  0  0  0  0  0  0  0
   -1.2462   14.9391   -7.7821 C   0  0  0  0  0  0  0  0  0  0  0  0
   -0.9279   16.3791   -7.3869 C   0  0  0  0  0  0  0  0  0  0  0  0
   -0.3052   16.4250   -5.9978 C   0  0  0  0  0  0  0  0  0  0  0  0
   -1.2029   15.7169   -4.9989 C   0  0  0  0  0  0  0  0  0  0  0  0
   -1.4792   14.2950   -5.4640 C   0  0  0  0  0  0  0  0  0  0  0  0
   -4.2610   13.6691   -8.5962 O   0  0  0  0  0  0  0  0  0  0  0  0
   -6.2650   10.9468  -10.3861 C   0  0  0  0  0  0  0  0  0  0  0  0
   -7.7958   10.7439  -10.4583 C   0  0  0  0  0  0  0  0  0  0  0  0
   -8.2500    9.4451   -9.9047 N   0  0  0  0  0  0  0  0  0  0  0  0
   -7.7319    9.0718   -8.5741 C   0  0  0  0  0  0  0  0  0  0  0  0
   -9.1622    8.6351  -10.4912 C   0  0  0  0  0  0  0  0  0  0  0  0
   -9.1648    7.4181  -10.3569 O   0  0  0  0  0  0  0  0  0  0  0  0
   -8.5192    7.4481   -3.6401 S   0  0  0  0  0  0  0  0  0  0  0  0
   -9.0882    9.1670   -3.5891 C   0  0  0  0  0  0  0  0  0  0  0  0
   -7.9860   10.0771   -3.0060 C   0  0  0  0  0  0  0  0  0  0  0  0
   -8.4740   11.0242   -1.9848 N   0  3  2  0  0  0  0  0  0  0  0  0
   -9.7342   11.6311   -2.4140 C   0  0  0  0  0  0  0  0  0  0  0  0
  -10.2920   12.5449   -1.3271 C   0  0  0  0  0  0  0  0  0  0  0  0
   -9.3058   13.6378   -0.9379 C   0  0  2  0  0  0  0  0  0  0  0  0
   -7.9539   13.0169   -0.6357 C   0  0  0  0  0  0  0  0  0  0  0  0
   -7.4939   12.0831   -1.7472 C   0  0  0  0  0  0  0  0  0  0  0  0
   -5.9539    5.6899   -2.7788 C   0  0  0  0  0  0  0  0  0  0  0  0
   -5.8199    6.3782   -1.5789 F   0  0  0  0  0  0  0  0  0  0  0  0
   -7.1847    5.0440   -2.7509 F   0  0  0  0  0  0  0  0  0  0  0  0
   -4.9792    4.6959   -2.7842 F   0  0  0  0  0  0  0  0  0  0  0  0
   -9.7173   14.1889    0.0450 F   0  0  0  0  0  0  0  0  0  0  0  0
   -9.8176    9.0193  -11.1326 N   0  0  0  0  0  0  0  0  0  0  0  0
  -10.3385    8.4887  -11.6079 C   0  0  0  0  0  0  0  0  0  0  0  0
   -9.9130    9.8879  -11.2188 C   0  0  0  0  0  0  0  0  0  0  0  0
  -11.0790    9.0251  -12.4020 C   0  0  0  0  0  0  0  0  0  0  0  0
   -9.7135    7.7402  -12.3184 C   0  0  0  0  0  0  0  0  0  0  0  0
  -11.0528   10.2904  -11.0549 C   0  0  0  0  0  0  0  0  0  0  0  0
   -9.6934   10.4274  -12.2849 C   0  0  0  0  0  0  0  0  0  0  0  0
   -9.1952   14.5602   -1.9739 H   0  0  0  0  0  0  0  0  0  0  0  0
   -2.2380   13.4761   -9.3290 H   0  0  0  0  0  0  0  0  0  0  0  0
   -3.5970    7.5731   -6.1660 H   0  0  0  0  0  0  0  0  0  0  0  0
   -3.8921    6.1560   -4.3162 H   0  0  0  0  0  0  0  0  0  0  0  0
   -7.5099    8.8060   -5.8542 H   0  0  0  0  0  0  0  0  0  0  0  0
   -2.2557   10.8948   -9.0271 H   0  0  0  0  0  0  0  0  0  0  0  0
   -3.4737   11.6018  -10.3480 H   0  0  0  0  0  0  0  0  0  0  0  0
   -3.2399   12.3630   -6.4551 H   0  0  0  0  0  0  0  0  0  0  0  0
   -1.4850   12.1941   -7.2511 H   0  0  0  0  0  0  0  0  0  0  0  0
   -0.2439   14.3010   -7.9562 H   0  0  0  0  0  0  0  0  0  0  0  0
   -1.8488   14.9608   -8.8191 H   0  0  0  0  0  0  0  0  0  0  0  0
   -0.1581   16.8700   -8.1651 H   0  0  0  0  0  0  0  0  0  0  0  0
   -1.9399   17.0230   -7.3742 H   0  0  0  0  0  0  0  0  0  0  0  0
   -0.1761   17.5701   -5.6630 H   0  0  0  0  0  0  0  0  0  0  0  0
    0.7700   15.8920   -6.0171 H   0  0  0  0  0  0  0  0  0  0  0  0
   -2.2421   16.3120   -4.9179 H   0  0  0  0  0  0  0  0  0  0  0  0
   -0.6710   15.7250   -3.9250 H   0  0  0  0  0  0  0  0  0  0  0  0
   -0.4578   13.6638   -5.4440 H   0  0  0  0  0  0  0  0  0  0  0  0
   -2.2313   13.8080   -4.6657 H   0  0  0  0  0  0  0  0  0  0  0  0
   -4.1120   14.6071   -8.2649 H   0  0  0  0  0  0  0  0  0  0  0  0
   -6.0528   12.1222  -10.4689 H   0  0  0  0  0  0  0  0  0  0  0  0
   -5.7720   10.3859  -11.3250 H   0  0  0  0  0  0  0  0  0  0  0  0
   -8.1118   10.9422  -11.5962 H   0  0  0  0  0  0  0  0  0  0  0  0
   -8.3141   11.5920   -9.7849 H   0  0  0  0  0  0  0  0  0  0  0  0
   -8.4470    9.5699   -7.7481 H   0  0  0  0  0  0  0  0  0  0  0  0
   -7.7659    7.8781   -8.4602 H   0  0  0  0  0  0  0  0  0  0  0  0
  -10.0802    9.2619   -2.9209 H   0  0  0  0  0  0  0  0  0  0  0  0
   -9.3422    9.4981   -4.7150 H   0  0  0  0  0  0  0  0  0  0  0  0
   -7.1079    9.4010   -2.5439 H   0  0  0  0  0  0  0  0  0  0  0  0
   -7.5291   10.7102   -3.9190 H   0  0  0  0  0  0  0  0  0  0  0  0
  -10.5092   10.7478   -2.6622 H   0  0  0  0  0  0  0  0  0  0  0  0
   -9.5520   12.2628   -3.4192 H   0  0  0  0  0  0  0  0  0  0  0  0
  -11.2778   13.0980   -1.7302 H   0  0  0  0  0  0  0  0  0  0  0  0
  -10.5781   11.9110   -0.3478 H   0  0  0  0  0  0  0  0  0  0  0  0
   -8.0539   12.4062    0.3931 H   0  0  0  0  0  0  0  0  0  0  0  0
   -7.1289   13.8769   -0.4889 H   0  0  0  0  0  0  0  0  0  0  0  0
   -7.3411   12.6998   -2.7651 H   0  0  0  0  0  0  0  0  0  0  0  0
   -6.4350   11.6081   -1.4361 H   0  0  0  0  0  0  0  0  0  0  0  0
   -2.8879   14.7486   -6.7174 H   0  0  0  0  0  0  0  0  0  0  0  0
   -8.6154   10.5656   -1.2092 H   0  0  0  0  0  0  0  0  0  0  0  0
  -11.1048    7.8590  -10.9207 H   0  0  0  0  0  0  0  0  0  0  0  0
   -9.8745   10.5228  -10.1983 H   0  0  0  0  0  0  0  0  0  0  0  0
  -11.6426    8.0569  -12.8678 H   0  0  0  0  0  0  0  0  0  0  0  0
  -10.9058    9.2314  -13.5839 H   0  0  0  0  0  0  0  0  0  0  0  0
  -12.2666    9.0688  -12.1427 H   0  0  0  0  0  0  0  0  0  0  0  0
   -8.5131    7.7939  -12.2010 H   0  0  0  0  0  0  0  0  0  0  0  0
   -9.6972    7.7572  -13.5255 H   0  0  0  0  0  0  0  0  0  0  0  0
  -10.0039    6.5897  -12.1064 H   0  0  0  0  0  0  0  0  0  0  0  0
  -11.6991    9.7387  -10.1846 H   0  0  0  0  0  0  0  0  0  0  0  0
  -11.2092   11.4333  -10.6388 H   0  0  0  0  0  0  0  0  0  0  0  0
  -11.8182   10.8237  -11.8380 H   0  0  0  0  0  0  0  0  0  0  0  0
   -8.8327    9.9405  -12.9851 H   0  0  0  0  0  0  0  0  0  0  0  0
  -10.4225   10.9049  -13.1259 H   0  0  0  0  0  0  0  0  0  0  0  0
   -9.5904   11.6309  -12.1352 H   0  0  0  0  0  0  0  0  0  0  0  0
  1  2  2  0  0  0  0
  1  6  1  0  0  0  0
  1 51  1  0  0  0  0
  2  3  1  0  0  0  0
  2 52  1  0  0  0  0
  3  4  2  0  0  0  0
  3 37  1  0  0  0  0
  4  5  1  0  0  0  0
  4 28  1  0  0  0  0
  5  6  2  0  0  0  0
  5 53  1  0  0  0  0
  6  7  1  0  0  0  0
  7  8  1  0  0  0  0
  7 11  2  0  0  0  0
  8  9  2  0  0  0  0
  8 25  1  0  0  0  0
  9 10  1  0  0  0  0
  9 22  1  0  0  0  0
 10 11  1  0  0  0  0
 10 12  1  0  0  0  0
 12 13  1  0  0  0  0
 12 54  1  0  0  0  0
 12 55  1  0  0  0  0
 13 14  1  0  0  0  0
 13 21  1  0  0  0  0
 13 50  1  6  0  0  0
 14 15  1  0  0  0  0
 14 56  1  0  0  0  0
 14 57  1  0  0  0  0
 15 16  1  0  0  0  0
 15 20  1  0  0  0  0
 15 87  1  0  0  0  0
 16 17  1  0  0  0  0
 16 58  1  0  0  0  0
 16 59  1  0  0  0  0
 17 18  1  0  0  0  0
 17 60  1  0  0  0  0
 17 61  1  0  0  0  0
 18 19  1  0  0  0  0
 18 62  1  0  0  0  0
 18 63  1  0  0  0  0
 19 20  1  0  0  0  0
 19 64  1  0  0  0  0
 19 65  1  0  0  0  0
 20 66  1  0  0  0  0
 20 67  1  0  0  0  0
 21 68  1  0  0  0  0
 22 23  1  0  0  0  0
 22 69  1  0  0  0  0
 22 70  1  0  0  0  0
 23 24  1  0  0  0  0
 23 71  1  0  0  0  0
 23 72  1  0  0  0  0
 24 25  1  0  0  0  0
 24 26  1  0  0  0  0
 25 73  1  0  0  0  0
 25 74  1  0  0  0  0
 26 27  2  0  0  0  0
 28 29  1  0  0  0  0
 29 30  1  0  0  0  0
 29 75  1  0  0  0  0
 29 76  1  0  0  0  0
 30 31  1  0  0  0  0
 30 77  1  0  0  0  0
 30 78  1  0  0  0  0
 31 32  1  0  0  0  0
 31 36  1  0  0  0  0
 31 88  1  1  0  0  0
 32 33  1  0  0  0  0
 32 79  1  0  0  0  0
 32 80  1  0  0  0  0
 33 34  1  0  0  0  0
 33 81  1  0  0  0  0
 33 82  1  0  0  0  0
 34 35  1  0  0  0  0
 34 41  1  0  0  0  0
 34 49  1  6  0  0  0
 35 36  1  0  0  0  0
 35 83  1  0  0  0  0
 35 84  1  0  0  0  0
 36 85  1  0  0  0  0
 36 86  1  0  0  0  0
 37 38  1  0  0  0  0
 37 39  1  0  0  0  0
 37 40  1  0  0  0  0
 42 26  1  0  0  0  0
 43 42  1  0  0  0  0
 44 42  1  0  0  0  0
 45 43  1  0  0  0  0
 46 43  1  0  0  0  0
 47 44  1  0  0  0  0
 48 44  1  0  0  0  0
 89 43  1  0  0  0  0
 90 44  1  0  0  0  0
 91 45  1  0  0  0  0
 92 45  1  0  0  0  0
 93 45  1  0  0  0  0
 94 46  1  0  0  0  0
 95 46  1  0  0  0  0
 96 46  1  0  0  0  0
 97 47  1  0  0  0  0
 98 47  1  0  0  0  0
 99 47  1  0  0  0  0
100 48  1  0  0  0  0
101 48  1  0  0  0  0
102 48  1  0  0  0  0
M  CHG  2  15   1  31   1
M  END
$$$$
