CatS_153
 OpenBabel05281909343D

 90 94  0  0  1  0  0  0  0  0999 V2000
   -0.1343   16.2940   -5.9150 C   0  0  2  0  0  0  0  0  0  0  0  0
   -0.8233   16.4893   -7.2586 C   0  0  0  0  0  0  0  0  0  0  0  0
   -1.2900   15.1472   -7.8189 C   0  0  0  0  0  0  0  0  0  0  0  0
   -2.1667   14.4292   -6.8692 N   0  3  2  0  0  0  0  0  0  0  0  0
   -1.4722   14.2177   -5.5960 C   0  0  0  0  0  0  0  0  0  0  0  0
   -1.0460   15.5360   -4.9662 C   0  0  0  0  0  0  0  0  0  0  0  0
   -2.5803   13.1269   -7.4201 C   0  0  0  0  0  0  0  0  0  0  0  0
   -3.1242   13.0259   -8.8679 C   0  0  1  0  0  0  0  0  0  0  0  0
   -3.2638   11.5090   -9.1209 C   0  0  0  0  0  0  0  0  0  0  0  0
   -4.2420   10.5140   -8.6600 N   0  0  0  0  0  0  0  0  0  0  0  0
   -5.4820   10.2818   -9.1501 C   0  0  0  0  0  0  0  0  0  0  0  0
   -6.1814    9.4202   -8.4170 C   0  0  0  0  0  0  0  0  0  0  0  0
   -5.3051    9.1153   -7.3479 C   0  0  0  0  0  0  0  0  0  0  0  0
   -4.1751    9.7758   -7.5248 N   0  0  0  0  0  0  0  0  0  0  0  0
   -5.5560    8.2629   -6.1939 C   0  0  0  0  0  0  0  0  0  0  0  0
   -4.5300    7.4890   -5.6949 C   0  0  0  0  0  0  0  0  0  0  0  0
   -4.7351    6.6810   -4.6049 C   0  0  0  0  0  0  0  0  0  0  0  0
   -5.9572    6.5959   -3.9660 C   0  0  0  0  0  0  0  0  0  0  0  0
   -6.9943    7.3881   -4.4571 C   0  0  0  0  0  0  0  0  0  0  0  0
   -6.7800    8.1990   -5.5519 C   0  0  0  0  0  0  0  0  0  0  0  0
   -8.6630    7.4821   -3.7701 S   0  0  0  0  0  0  0  0  0  0  0  0
   -9.3309    9.0539   -3.1619 C   0  0  0  0  0  0  0  0  0  0  0  0
   -8.2222   10.0751   -2.8262 C   0  0  0  0  0  0  0  0  0  0  0  0
   -8.5759   11.1032   -1.8210 N   0  3  2  0  0  0  0  0  0  0  0  0
   -9.9618   11.5501   -1.9600 C   0  0  0  0  0  0  0  0  0  0  0  0
  -10.3209   12.5460   -0.8612 C   0  0  0  0  0  0  0  0  0  0  0  0
   -9.3938   13.7531   -0.8589 C   0  0  0  0  0  0  0  0  0  0  0  0
   -7.9500   13.2839   -0.8649 C   0  0  0  0  0  0  0  0  0  0  0  0
   -7.6879   12.2569   -1.9581 C   0  0  0  0  0  0  0  0  0  0  0  0
   -7.6269   12.7482    0.3769 F   0  0  0  0  0  0  0  0  0  0  0  0
   -7.1229   14.3871   -1.0520 F   0  0  0  0  0  0  0  0  0  0  0  0
   -5.9109    5.6178   -2.7931 C   0  0  0  0  0  0  0  0  0  0  0  0
   -7.0478    4.8450   -2.6558 F   0  0  0  0  0  0  0  0  0  0  0  0
   -5.7071    6.2891   -1.5909 F   0  0  0  0  0  0  0  0  0  0  0  0
   -4.8839    4.6870   -2.9152 F   0  0  0  0  0  0  0  0  0  0  0  0
   -7.6092    9.0309   -8.7911 C   0  0  0  0  0  0  0  0  0  0  0  0
   -8.1021    9.5491  -10.0910 N   0  0  0  0  0  0  0  0  0  0  0  0
   -7.6020   10.9236  -10.2947 C   0  0  0  0  0  0  0  0  0  0  0  0
   -6.0629   10.9440  -10.3818 C   0  0  0  0  0  0  0  0  0  0  0  0
   -9.6482    9.2098  -10.4699 S   0  0  0  0  0  0  0  0  0  0  0  0
   -9.6798    9.4661  -11.8731 O   0  0  0  0  0  0  0  0  0  0  0  0
   -9.7609    7.8150  -10.1931 O   0  0  0  0  0  0  0  0  0  0  0  0
  -11.2730    9.8122   -9.9540 C   0  0  0  0  0  0  0  0  0  0  0  0
   -4.3941   13.6859   -8.9950 O   0  0  0  0  0  0  0  0  0  0  0  0
   -0.0018   17.3952   -5.4591 C   0  0  0  0  0  0  0  0  0  0  0  0
    0.8807   15.6795   -6.1105 O   0  0  0  0  0  0  0  0  0  0  0  0
   -2.3400   13.5120   -9.6368 H   0  0  0  0  0  0  0  0  0  0  0  0
   -0.0230   16.9622   -8.0167 H   0  0  0  0  0  0  0  0  0  0  0  0
   -1.7600   17.2321   -7.1892 H   0  0  0  0  0  0  0  0  0  0  0  0
   -0.3071   14.5309   -8.1251 H   0  0  0  0  0  0  0  0  0  0  0  0
   -1.9180   15.3601   -8.8180 H   0  0  0  0  0  0  0  0  0  0  0  0
   -0.5077   13.5348   -5.8191 H   0  0  0  0  0  0  0  0  0  0  0  0
   -2.1649   13.6379   -4.8071 H   0  0  0  0  0  0  0  0  0  0  0  0
   -2.0182   16.1967   -4.7169 H   0  0  0  0  0  0  0  0  0  0  0  0
   -0.5130   15.2529   -3.9300 H   0  0  0  0  0  0  0  0  0  0  0  0
   -1.6790   12.3470   -7.2932 H   0  0  0  0  0  0  0  0  0  0  0  0
   -3.4671   12.7578   -6.7000 H   0  0  0  0  0  0  0  0  0  0  0  0
   -2.2441   11.0568   -8.6780 H   0  0  0  0  0  0  0  0  0  0  0  0
   -3.2469   11.3532  -10.3111 H   0  0  0  0  0  0  0  0  0  0  0  0
   -3.6279    7.5170   -6.1271 H   0  0  0  0  0  0  0  0  0  0  0  0
   -3.9710    6.1360   -4.2648 H   0  0  0  0  0  0  0  0  0  0  0  0
   -7.5340    8.7609   -5.8897 H   0  0  0  0  0  0  0  0  0  0  0  0
  -10.0141    8.8492   -2.1951 H   0  0  0  0  0  0  0  0  0  0  0  0
   -9.9372    9.5710   -4.0569 H   0  0  0  0  0  0  0  0  0  0  0  0
   -7.2731    9.4749   -2.4011 H   0  0  0  0  0  0  0  0  0  0  0  0
   -7.8926   10.5920   -3.8590 H   0  0  0  0  0  0  0  0  0  0  0  0
  -10.7041   10.6140   -1.8572 H   0  0  0  0  0  0  0  0  0  0  0  0
  -10.1000   12.0340   -3.0490 H   0  0  0  0  0  0  0  0  0  0  0  0
  -10.2477   12.0270    0.2198 H   0  0  0  0  0  0  0  0  0  0  0  0
  -11.4462   12.9320   -1.0200 H   0  0  0  0  0  0  0  0  0  0  0  0
   -9.6091   14.4330   -1.8228 H   0  0  0  0  0  0  0  0  0  0  0  0
   -9.5878   14.3972    0.1342 H   0  0  0  0  0  0  0  0  0  0  0  0
   -6.5441   11.8981   -1.9202 H   0  0  0  0  0  0  0  0  0  0  0  0
   -7.8700   12.7941   -3.0161 H   0  0  0  0  0  0  0  0  0  0  0  0
   -8.3370    9.4322   -7.9290 H   0  0  0  0  0  0  0  0  0  0  0  0
   -7.6838    7.8373   -8.8309 H   0  0  0  0  0  0  0  0  0  0  0  0
   -7.9648   11.6280   -9.3961 H   0  0  0  0  0  0  0  0  0  0  0  0
   -8.0210   11.3601  -11.3292 H   0  0  0  0  0  0  0  0  0  0  0  0
   -5.6992   12.0840  -10.4542 H   0  0  0  0  0  0  0  0  0  0  0  0
   -5.7072   10.3492  -11.3599 H   0  0  0  0  0  0  0  0  0  0  0  0
  -11.4340    9.5611   -8.7922 H   0  0  0  0  0  0  0  0  0  0  0  0
  -11.3349   10.9991  -10.1201 H   0  0  0  0  0  0  0  0  0  0  0  0
  -12.1249    9.2699  -10.6009 H   0  0  0  0  0  0  0  0  0  0  0  0
   -4.3181   14.6689   -8.7980 H   0  0  0  0  0  0  0  0  0  0  0  0
    0.6737   18.1256   -6.1361 H   0  0  0  0  0  0  0  0  0  0  0  0
    0.5223   17.3836   -4.3760 H   0  0  0  0  0  0  0  0  0  0  0  0
   -1.0247   18.0054   -5.2940 H   0  0  0  0  0  0  0  0  0  0  0  0
   -2.9090   14.9385   -6.7195 H   0  0  0  0  0  0  0  0  0  0  0  0
   -8.4737   10.7392   -0.9907 H   0  0  0  0  0  0  0  0  0  0  0  0
    1.4782   16.1525   -6.7679 H   0  0  0  0  0  0  0  0  0  0  0  0
  1  2  1  0  0  0  0
  1  6  1  0  0  0  0
  1 45  1  0  0  0  0
  1 46  1  6  0  0  0
  2  3  1  0  0  0  0
  2 48  1  0  0  0  0
  2 49  1  0  0  0  0
  3  4  1  0  0  0  0
  3 50  1  0  0  0  0
  3 51  1  0  0  0  0
  4  5  1  0  0  0  0
  4  7  1  0  0  0  0
  4 88  1  1  0  0  0
  5  6  1  0  0  0  0
  5 52  1  0  0  0  0
  5 53  1  0  0  0  0
  6 54  1  0  0  0  0
  6 55  1  0  0  0  0
  7  8  1  0  0  0  0
  7 56  1  0  0  0  0
  7 57  1  0  0  0  0
  8  9  1  0  0  0  0
  8 44  1  0  0  0  0
  8 47  1  6  0  0  0
  9 10  1  0  0  0  0
  9 58  1  0  0  0  0
  9 59  1  0  0  0  0
 10 11  1  0  0  0  0
 10 14  1  0  0  0  0
 11 12  2  0  0  0  0
 11 39  1  0  0  0  0
 12 13  1  0  0  0  0
 12 36  1  0  0  0  0
 13 14  2  0  0  0  0
 13 15  1  0  0  0  0
 15 16  2  0  0  0  0
 15 20  1  0  0  0  0
 16 17  1  0  0  0  0
 16 60  1  0  0  0  0
 17 18  2  0  0  0  0
 17 61  1  0  0  0  0
 18 19  1  0  0  0  0
 18 32  1  0  0  0  0
 19 20  2  0  0  0  0
 19 21  1  0  0  0  0
 20 62  1  0  0  0  0
 21 22  1  0  0  0  0
 22 23  1  0  0  0  0
 22 63  1  0  0  0  0
 22 64  1  0  0  0  0
 23 24  1  0  0  0  0
 23 65  1  0  0  0  0
 23 66  1  0  0  0  0
 24 25  1  0  0  0  0
 24 29  1  0  0  0  0
 24 89  1  1  0  0  0
 25 26  1  0  0  0  0
 25 67  1  0  0  0  0
 25 68  1  0  0  0  0
 26 27  1  0  0  0  0
 26 69  1  0  0  0  0
 26 70  1  0  0  0  0
 27 28  1  0  0  0  0
 27 71  1  0  0  0  0
 27 72  1  0  0  0  0
 28 29  1  0  0  0  0
 28 30  1  0  0  0  0
 28 31  1  0  0  0  0
 29 73  1  0  0  0  0
 29 74  1  0  0  0  0
 32 33  1  0  0  0  0
 32 34  1  0  0  0  0
 32 35  1  0  0  0  0
 36 37  1  0  0  0  0
 36 75  1  0  0  0  0
 36 76  1  0  0  0  0
 37 38  1  0  0  0  0
 37 40  1  0  0  0  0
 38 39  1  0  0  0  0
 38 77  1  0  0  0  0
 38 78  1  0  0  0  0
 39 79  1  0  0  0  0
 39 80  1  0  0  0  0
 40 41  2  0  0  0  0
 40 42  2  0  0  0  0
 40 43  1  0  0  0  0
 43 81  1  0  0  0  0
 43 82  1  0  0  0  0
 43 83  1  0  0  0  0
 44 84  1  0  0  0  0
 85 45  1  0  0  0  0
 86 45  1  0  0  0  0
 87 45  1  0  0  0  0
 90 46  1  0  0  0  0
M  CHG  2   4   1  24   1
M  END
$$$$
