# Molecule written by the XED library from Cresset
@<TRIPOS>MOLECULE
CatS_186
    93     97      1
SMALL
USER_CHARGES
@<TRIPOS>ATOM
      1  C1          1.3339   16.0009   -5.8728 O.3       1 MOL1       -0.4397
      2  C2         -0.0729   16.6141   -5.7498 C.3       1 MOL1       -0.0117
      3  C3         -0.9227   15.7401   -4.8439 C.3       1 MOL1       -0.0539
      4  C4         -1.1369   14.3781   -5.4879 C.3       1 MOL1       -0.0578
      5  N1         -1.7890   14.4969   -6.7952 N.4       1 MOL1       -0.2281
      6  C5         -0.9682   15.3259   -7.7038 C.3       1 MOL1       -0.0578
      7  C6         -0.7129   16.7181   -7.1279 C.3       1 MOL1       -0.0539
      8  C7         -2.0428   13.1668   -7.4038 C.3       1 MOL1       -0.0328
      9  C8         -3.3093   13.0530   -8.2949 C.3       1 MOL1        0.0191
     10  C9         -3.4941   11.6570   -8.9742 C.3       1 MOL1        0.0979
     11  N2         -4.3588   10.4681   -8.7431 N.pl3     1 MOL1       -0.0670
     12  C10        -5.5841   10.1769   -9.2681 C.ar      1 MOL1        0.0572
     13  C11        -6.2740    9.2901   -8.5490 C.ar      1 MOL1       -0.0684
     14  C12        -5.4101    8.9539   -7.4850 C.ar      1 MOL1        0.0392
     15  N3         -4.2990    9.6549   -7.6450 N.2       1 MOL1       -0.2943
     16  C13        -5.6732    8.0782   -6.3410 C.ar      1 MOL1       -0.0066
     17  C14        -4.6270    7.3004   -5.8859 C.ar      1 MOL1       -0.0846
     18  C15        -4.7569    6.5309   -4.7570 C.ar      1 MOL1       -0.0687
     19  C16        -5.9250    6.5021   -4.0210 C.ar      1 MOL1        0.0171
     20  C17        -7.0081    7.2398   -4.4828 C.ar      1 MOL1        0.0480
     21  C18        -6.8689    7.9988   -5.6309 C.ar      1 MOL1       -0.0655
     22  S1         -8.6061    7.3358   -3.6276 S.3       1 MOL1       -0.1783
     23  C19        -9.4421    8.9122   -3.1979 C.3       1 MOL1       -0.0087
     24  C20        -8.3442    9.9560   -2.8599 C.3       1 MOL1       -0.0441
     25  N4         -8.6160   11.0732   -1.9191 N.4       1 MOL1       -0.2286
     26  C21       -10.0010   11.5208   -2.0632 C.3       1 MOL1       -0.0625
     27  C22       -10.3278   12.6040   -1.0380 C.3       1 MOL1       -0.0797
     28  C23        -9.3920   13.7980   -1.1518 C.3       1 MOL1       -0.0638
     29  C24        -7.9522   13.3159   -1.1532 C.3       1 MOL1       -0.0797
     30  C25        -7.7231   12.2042   -2.1670 C.3       1 MOL1       -0.0625
     31  C26        -5.8591    5.6670   -2.7468 C.3       1 MOL1        0.4149
     32  F2         -7.0139    4.9252   -2.5169 F         1 MOL1       -0.1514
     33  F3         -5.6489    6.4550   -1.6219 F         1 MOL1       -0.1514
     34  F4         -4.8280    4.7409   -2.8282 F         1 MOL1       -0.1514
     35  C27        -7.6889    8.8532   -8.8999 C.3       1 MOL1        0.1169
     36  N5         -8.3881    9.7010   -9.8888 N.3       1 MOL1       -0.4606
     37  C28        -7.4590   10.0388  -10.9910 C.3       1 MOL1        0.0844
     38  C29        -6.2002   10.8080  -10.5069 C.3       1 MOL1       -0.0158
     39  S2         -9.9431    9.2750  -10.1870 S.3       1 MOL1        0.4316
     40  O1         -9.9670    7.8831   -9.8719 O.2       1 MOL1       -0.3139
     41  O2        -10.1031    9.4900  -11.5879 O.2       1 MOL1       -0.3139
     42  C30       -11.5721    9.7759   -9.5750 C.3       1 MOL1        0.0421
     43  C31         0.1060   18.0262   -5.1611 C.3       1 MOL1       -0.0891
     44  H28        -9.5811   14.5221   -0.2141 C.3       1 MOL1       -0.1200
     45  H1         -4.2389   13.1650   -7.5462 O.3       1 MOL1       -0.4408
     46  O3         -3.4289   14.1698   -9.1869 H         1 MOL1        0.0680
     47  H          -9.6721   14.4922   -2.3299 H         1 MOL1        0.0485
     48  H5         -1.9700   16.2880   -4.6292 H         1 MOL1        0.0491
     49  H6         -0.3639   15.6001   -3.7911 H         1 MOL1        0.0491
     50  H7         -0.0642   13.8450   -5.4829 H         1 MOL1        0.0529
     51  H8         -1.8560   13.7671   -4.7461 H         1 MOL1        0.0529
     52  H9          0.0863   14.7889   -7.9054 H         1 MOL1        0.0529
     53  H10        -1.5380   15.4580   -8.7511 H         1 MOL1        0.0529
     54  H11        -1.7709   17.2780   -7.0539 H         1 MOL1        0.0491
     55  H12        -0.0079   17.3400   -7.8758 H         1 MOL1        0.0491
     56  H13        -1.1191   12.8882   -8.1171 H         1 MOL1        0.0549
     57  H14        -2.1011   12.3481   -6.5281 H         1 MOL1        0.0549
     58  H15        -3.6390   11.9000  -10.1399 H         1 MOL1        0.0624
     59  H16        -2.3970   11.1730   -8.8922 H         1 MOL1        0.0624
     60  H17        -3.7551    7.3127   -6.3770 H         1 MOL1        0.0910
     61  H18        -3.9722    5.9941   -4.4509 H         1 MOL1        0.0908
     62  H19        -7.6539    8.5291   -5.9440 H         1 MOL1        0.0929
     63  H20       -10.1221    8.7890   -2.2208 H         1 MOL1        0.0553
     64  H21       -10.1122    9.2961   -4.1158 H         1 MOL1        0.0553
     65  H22        -7.3821    9.3488   -2.4769 H         1 MOL1        0.0547
     66  H23        -8.0590   10.4590   -3.9130 H         1 MOL1        0.0547
     67  H24       -10.6991   10.5538   -1.9231 H         1 MOL1        0.0528
     68  H25       -10.1969   11.9492   -3.1671 H         1 MOL1        0.0528
     69  H26       -11.4381   13.0202   -1.2281 H         1 MOL1        0.0470
     70  H27       -10.2711   12.1600    0.0760 H         1 MOL1        0.0470
     71  H29        -7.6898   12.9481   -0.0399 H         1 MOL1        0.0470
     72  H30        -7.2300   14.2411   -1.4129 H         1 MOL1        0.0470
     73  H31        -7.9248   12.6460   -3.2641 H         1 MOL1        0.0528
     74  H32        -6.5719   11.8760   -2.0897 H         1 MOL1        0.0528
     75  H33        -8.3719    8.9081   -7.9169 H         1 MOL1        0.0628
     76  H34        -7.6539    7.7251   -9.3070 H         1 MOL1        0.0628
     77  H35        -7.1280    9.0280  -11.5449 H         1 MOL1        0.0601
     78  H36        -8.0409   10.7379  -11.7743 H         1 MOL1        0.0601
     79  H37        -5.3911   10.8440  -11.3930 H         1 MOL1        0.0516
     80  H38        -6.5253   11.9298  -10.2322 H         1 MOL1        0.0516
     81  H39       -11.7833   10.9188   -9.8741 H         1 MOL1        0.0588
     82  H40       -11.6087    9.6610   -8.3809 H         1 MOL1        0.0588
     83  H41       -12.4131    9.0751  -10.0659 H         1 MOL1        0.0588
     84  H43        -0.9659   18.5278   -4.9667 H         1 MOL1        0.0457
     85  H44         0.7303   18.7017   -5.9332 H         1 MOL1        0.0457
     86  H45         0.7100   17.9571   -4.1260 H         1 MOL1        0.0457
     87  H           1.9945   16.6841   -5.7360 H         1 MOL1        0.3291
     88  H         -10.6432   14.6412   -0.0597 H         1 MOL1        0.0435
     89  H          -9.1350   14.0902    0.6696 H         1 MOL1        0.0435
     90  H          -9.1350   15.4863   -0.4081 H         1 MOL1        0.0435
     91  H          -2.5939   14.9080   -6.6692 H         1 MOL1        0.1922
     92  H          -8.4914   10.7730   -1.0663 H         1 MOL1        0.1920
     93  H          -5.1144   13.1015   -8.0375 H         1 MOL1        0.3291
@<TRIPOS>BOND
     1      1      2 1 
     2      2      3 1 
     3      2      7 1 
     4      2     43 1 
     5      3      4 1 
     6      4      5 1 
     7      5      6 1 
     8      5      8 1 
     9      6      7 1 
    10      8      9 1 
    11      9     10 1 
    12      9     45 1 
    13     10     11 1 
    14     11     12 ar
    15     11     15 ar
    16     12     13 ar
    17     12     38 1 
    18     13     14 ar
    19     13     35 1 
    20     14     15 ar
    21     14     16 1 
    22     16     17 ar
    23     16     21 ar
    24     17     18 ar
    25     18     19 ar
    26     19     20 ar
    27     19     31 1 
    28     20     21 ar
    29     20     22 1 
    30     22     23 1 
    31     23     24 1 
    32     24     25 1 
    33     25     26 1 
    34     25     30 1 
    35     26     27 1 
    36     27     28 1 
    37     28     29 1 
    38     28     44 1 
    39     29     30 1 
    40     31     32 1 
    41     31     33 1 
    42     31     34 1 
    43     35     36 1 
    44     36     37 1 
    45     36     39 1 
    46     37     38 1 
    47     39     40 2 
    48     39     41 2 
    49     39     42 1 
    50      3     48 1 
    51      3     49 1 
    52      4     50 1 
    53      4     51 1 
    54      6     52 1 
    55      6     53 1 
    56      7     54 1 
    57      7     55 1 
    58      8     56 1 
    59      8     57 1 
    60      9     46 1 
    61     10     58 1 
    62     10     59 1 
    63     17     60 1 
    64     18     61 1 
    65     21     62 1 
    66     23     63 1 
    67     23     64 1 
    68     24     65 1 
    69     24     66 1 
    70     26     67 1 
    71     26     68 1 
    72     27     69 1 
    73     27     70 1 
    74     28     47 1 
    75     29     71 1 
    76     29     72 1 
    77     30     73 1 
    78     30     74 1 
    79     35     75 1 
    80     35     76 1 
    81     37     77 1 
    82     37     78 1 
    83     38     79 1 
    84     38     80 1 
    85     42     81 1 
    86     42     82 1 
    87     42     83 1 
    88     43     84 1 
    89     43     85 1 
    90     43     86 1 
    91     45     93 1 
    92     87      1 1 
    93     88     44 1 
    94     89     44 1 
    95     90     44 1 
    96     91      5 1 
    97     92     25 1 
@<TRIPOS>SUBSTRUCTURE
     1 MOL1         1 MOLECULE          1 A
