# Molecule written by the XED library from Cresset
@<TRIPOS>MOLECULE
CatS_142
    87     91      1
SMALL
USER_CHARGES
@<TRIPOS>ATOM
      1  C1         -4.4862    7.5392   -5.7132 C.ar      1 MOL1       -0.0846
      2  C2         -4.6601    6.7109   -4.6311 C.ar      1 MOL1       -0.0687
      3  C3         -5.8700    6.6380   -3.9732 C.ar      1 MOL1        0.0171
      4  C4         -6.9109    7.4268   -4.4418 C.ar      1 MOL1        0.0480
      5  C5         -6.7442    8.2479   -5.5342 C.ar      1 MOL1       -0.0655
      6  C6         -5.5263    8.3209   -6.1831 C.ar      1 MOL1       -0.0066
      7  C7         -5.3730    9.2152   -7.3199 C.ar      1 MOL1        0.0391
      8  C8         -6.3012    9.5349   -8.3339 C.ar      1 MOL1       -0.0691
      9  C9         -5.6321   10.3809   -9.1234 C.ar      1 MOL1        0.0571
     10  N1         -4.3651   10.6259   -8.6809 N.pl3     1 MOL1       -0.0670
     11  N2         -4.2578    9.8690   -7.5652 N.2       1 MOL1       -0.2943
     12  C10        -3.2820   11.5018   -9.1681 C.3       1 MOL1        0.0979
     13  C11        -3.0351   12.9249   -8.6221 C.3       1 MOL1        0.0191
     14  C12        -2.4582   12.8949   -7.1939 C.3       1 MOL1       -0.0328
     15  N3         -2.1130   14.2739   -6.7860 N.4       1 MOL1       -0.2283
     16  C13        -1.2461   14.9390   -7.7821 C.3       1 MOL1       -0.0630
     17  C14        -0.9278   16.3790   -7.3870 C.3       1 MOL1       -0.0834
     18  C15        -0.3051   16.4250   -5.9978 C.3       1 MOL1       -0.0872
     19  C16        -1.2031   15.7169   -4.9989 C.3       1 MOL1       -0.0834
     20  C17        -1.4792   14.2951   -5.4641 C.3       1 MOL1       -0.0630
     21  O1         -4.2610   13.6691   -8.5963 O.3       1 MOL1       -0.4408
     22  C18        -6.2651   10.9469  -10.3860 C.3       1 MOL1       -0.0166
     23  C19        -7.7959   10.7439  -10.4582 C.3       1 MOL1        0.0808
     24  N4         -8.2500    9.4451   -9.9048 N.am      1 MOL1       -0.4013
     25  C20        -7.7319    9.0717   -8.5741 C.3       1 MOL1        0.1152
     26  C21        -9.1622    8.6351  -10.4910 C.2       1 MOL1        0.4038
     27  O2         -9.1648    7.4181  -10.3569 O.2       1 MOL1       -0.4577
     28  S1         -8.5191    7.4481   -3.6401 S.3       1 MOL1       -0.1783
     29  C26        -9.0883    9.1671   -3.5891 C.3       1 MOL1       -0.0087
     30  C27        -7.9859   10.0771   -3.0061 C.3       1 MOL1       -0.0441
     31  N5         -8.4741   11.0242   -1.9848 N.4       1 MOL1       -0.2284
     32  C28        -9.7343   11.6310   -2.4139 C.3       1 MOL1       -0.0566
     33  C29       -10.2920   12.5449   -1.3272 C.3       1 MOL1       -0.0467
     34  C30        -9.3059   13.6378   -0.9381 C.3       1 MOL1        0.0498
     35  C31        -7.9539   13.0169   -0.6358 C.3       1 MOL1       -0.0467
     36  C32        -7.4939   12.0830   -1.7473 C.3       1 MOL1       -0.0566
     37  C33        -5.9540    5.6900   -2.7789 C.3       1 MOL1        0.4149
     38  F2         -5.8198    6.3781   -1.5789 F         1 MOL1       -0.1514
     39  F3         -7.1847    5.0440   -2.7509 F         1 MOL1       -0.1514
     40  F4         -4.9793    4.6959   -2.7842 F         1 MOL1       -0.1514
     41  H41        -9.7173   14.1889    0.0450 F         1 MOL1       -0.2169
     42  H          -9.8176    9.0192  -11.1326 N.am      1 MOL1       -0.3950
     43  H         -10.3385    8.4887  -11.6079 C.3       1 MOL1        0.0474
     44  H          -9.1951   14.5601   -1.9738 H         1 MOL1        0.0735
     45  H1         -2.2380   13.4761   -9.3290 H         1 MOL1        0.0680
     46  H2         -3.5971    7.5730   -6.1659 H         1 MOL1        0.0910
     47  H3         -3.8921    6.1560   -4.3162 H         1 MOL1        0.0908
     48  H4         -7.5099    8.8059   -5.8541 H         1 MOL1        0.0929
     49  H5         -2.2557   10.8948   -9.0271 H         1 MOL1        0.0624
     50  H6         -3.4737   11.6018  -10.3480 H         1 MOL1        0.0624
     51  H7         -3.2399   12.3630   -6.4550 H         1 MOL1        0.0549
     52  H8         -1.4850   12.1940   -7.2511 H         1 MOL1        0.0549
     53  H9         -0.2439   14.3011   -7.9562 H         1 MOL1        0.0529
     54  H10        -1.8489   14.9609   -8.8191 H         1 MOL1        0.0529
     55  H11        -0.1580   16.8700   -8.1651 H         1 MOL1        0.0467
     56  H12        -1.9400   17.0230   -7.3741 H         1 MOL1        0.0467
     57  H13        -0.1761   17.5701   -5.6630 H         1 MOL1        0.0460
     58  H14         0.7699   15.8920   -6.0171 H         1 MOL1        0.0460
     59  H15        -2.2421   16.3121   -4.9179 H         1 MOL1        0.0467
     60  H16        -0.6710   15.7250   -3.9250 H         1 MOL1        0.0467
     61  H17        -0.4577   13.6638   -5.4441 H         1 MOL1        0.0529
     62  H18        -2.2312   13.8080   -4.6658 H         1 MOL1        0.0529
     63  H19        -4.1120   14.6071   -8.2650 H         1 MOL1        0.3291
     64  H20        -6.0529   12.1222  -10.4688 H         1 MOL1        0.0516
     65  H21        -5.7721   10.3860  -11.3250 H         1 MOL1        0.0516
     66  H22        -8.1117   10.9422  -11.5962 H         1 MOL1        0.0595
     67  H23        -8.3141   11.5920   -9.7849 H         1 MOL1        0.0595
     68  H24        -8.4471    9.5699   -7.7480 H         1 MOL1        0.0622
     69  H25        -7.7660    7.8780   -8.4602 H         1 MOL1        0.0622
     70  H33       -10.0801    9.2619   -2.9210 H         1 MOL1        0.0553
     71  H34        -9.3421    9.4981   -4.7150 H         1 MOL1        0.0553
     72  H35        -7.1079    9.4010   -2.5439 H         1 MOL1        0.0547
     73  H36        -7.5292   10.7101   -3.9190 H         1 MOL1        0.0547
     74  H37       -10.5091   10.7479   -2.6622 H         1 MOL1        0.0529
     75  H38        -9.5521   12.2629   -3.4192 H         1 MOL1        0.0529
     76  H39       -11.2779   13.0980   -1.7302 H         1 MOL1        0.0497
     77  H40       -10.5781   11.9111   -0.3479 H         1 MOL1        0.0497
     78  H42        -8.0539   12.4062    0.3931 H         1 MOL1        0.0497
     79  H43        -7.1287   13.8768   -0.4889 H         1 MOL1        0.0497
     80  H44        -7.3410   12.6999   -2.7652 H         1 MOL1        0.0529
     81  H45        -6.4350   11.6082   -1.4361 H         1 MOL1        0.0529
     82  H          -2.8878   14.7486   -6.7174 H         1 MOL1        0.1921
     83  H          -8.6153   10.5657   -1.2092 H         1 MOL1        0.1921
     84  H          -9.9129    9.8879  -11.2188 H         1 MOL1        0.2044
     85  H         -11.1047    7.8590  -10.9208 H         1 MOL1        0.0565
     86  H         -11.0789    9.0251  -12.4020 H         1 MOL1        0.0565
     87  H          -9.7135    7.7402  -12.3184 H         1 MOL1        0.0565
@<TRIPOS>BOND
     1      1      2 ar
     2      1      6 ar
     3      2      3 ar
     4      3      4 ar
     5      3     37 1 
     6      4      5 ar
     7      4     28 1 
     8      5      6 ar
     9      6      7 1 
    10      7      8 ar
    11      7     11 ar
    12      8      9 ar
    13      8     25 1 
    14      9     10 ar
    15      9     22 1 
    16     10     11 ar
    17     10     12 1 
    18     12     13 1 
    19     13     14 1 
    20     13     21 1 
    21     14     15 1 
    22     15     16 1 
    23     15     20 1 
    24     16     17 1 
    25     17     18 1 
    26     18     19 1 
    27     19     20 1 
    28     22     23 1 
    29     23     24 1 
    30     24     25 1 
    31     24     26 am
    32     26     27 2 
    33     28     29 1 
    34     29     30 1 
    35     30     31 1 
    36     31     32 1 
    37     31     36 1 
    38     32     33 1 
    39     33     34 1 
    40     34     35 1 
    41     34     41 1 
    42     35     36 1 
    43     37     38 1 
    44     37     39 1 
    45     37     40 1 
    46     42     26 am
    47     43     42 1 
    48      1     46 1 
    49      2     47 1 
    50      5     48 1 
    51     12     49 1 
    52     12     50 1 
    53     13     45 1 
    54     14     51 1 
    55     14     52 1 
    56     15     82 1 
    57     16     53 1 
    58     16     54 1 
    59     17     55 1 
    60     17     56 1 
    61     18     57 1 
    62     18     58 1 
    63     19     59 1 
    64     19     60 1 
    65     20     61 1 
    66     20     62 1 
    67     21     63 1 
    68     22     64 1 
    69     22     65 1 
    70     23     66 1 
    71     23     67 1 
    72     25     68 1 
    73     25     69 1 
    74     29     70 1 
    75     29     71 1 
    76     30     72 1 
    77     30     73 1 
    78     31     83 1 
    79     32     74 1 
    80     32     75 1 
    81     33     76 1 
    82     33     77 1 
    83     34     44 1 
    84     35     78 1 
    85     35     79 1 
    86     36     80 1 
    87     36     81 1 
    88     84     42 1 
    89     85     43 1 
    90     86     43 1 
    91     87     43 1 
@<TRIPOS>SUBSTRUCTURE
     1 MOL1         1 MOLECULE          1 A
