CatS_127
 OpenBabel05281909343D

 88 92  0  0  1  0  0  0  0  0999 V2000
   -4.4861    7.5390   -5.7132 C   0  0  0  0  0  0  0  0  0  0  0  0
   -4.6602    6.7109   -4.6310 C   0  0  0  0  0  0  0  0  0  0  0  0
   -5.8702    6.6379   -3.9730 C   0  0  0  0  0  0  0  0  0  0  0  0
   -6.9109    7.4267   -4.4419 C   0  0  0  0  0  0  0  0  0  0  0  0
   -6.7442    8.2479   -5.5343 C   0  0  0  0  0  0  0  0  0  0  0  0
   -5.5264    8.3208   -6.1832 C   0  0  0  0  0  0  0  0  0  0  0  0
   -5.3730    9.2152   -7.3199 C   0  0  0  0  0  0  0  0  0  0  0  0
   -6.3012    9.5350   -8.3340 C   0  0  0  0  0  0  0  0  0  0  0  0
   -5.6320   10.3809   -9.1234 C   0  0  0  0  0  0  0  0  0  0  0  0
   -4.3651   10.6261   -8.6809 N   0  0  0  0  0  0  0  0  0  0  0  0
   -4.2577    9.8690   -7.5652 N   0  0  0  0  0  0  0  0  0  0  0  0
   -3.2820   11.5018   -9.1681 C   0  0  0  0  0  0  0  0  0  0  0  0
   -3.0351   12.9250   -8.6220 C   0  0  2  0  0  0  0  0  0  0  0  0
   -2.4581   12.8949   -7.1938 C   0  0  0  0  0  0  0  0  0  0  0  0
   -2.1130   14.2739   -6.7860 N   0  3  0  0  0  0  0  0  0  0  0  0
   -1.2460   14.9390   -7.7821 C   0  0  0  0  0  0  0  0  0  0  0  0
   -0.9278   16.3790   -7.3870 C   0  0  0  0  0  0  0  0  0  0  0  0
   -0.3050   16.4249   -5.9977 C   0  0  0  0  0  0  0  0  0  0  0  0
   -1.2030   15.7168   -4.9989 C   0  0  0  0  0  0  0  0  0  0  0  0
   -1.4791   14.2951   -5.4641 C   0  0  0  0  0  0  0  0  0  0  0  0
   -4.2611   13.6689   -8.5963 O   0  0  0  0  0  0  0  0  0  0  0  0
   -6.2651   10.9469  -10.3859 C   0  0  0  0  0  0  0  0  0  0  0  0
   -7.7957   10.7439  -10.4581 C   0  0  0  0  0  0  0  0  0  0  0  0
   -8.2501    9.4450   -9.9049 N   0  0  0  0  0  0  0  0  0  0  0  0
   -7.7318    9.0717   -8.5742 C   0  0  0  0  0  0  0  0  0  0  0  0
   -9.1893    8.7026  -10.5179 C   0  0  0  0  0  0  0  0  0  0  0  0
   -9.4763    7.5543  -10.2079 O   0  0  0  0  0  0  0  0  0  0  0  0
   -8.5189    7.4481   -3.6402 S   0  0  0  0  0  0  0  0  0  0  0  0
   -9.0884    9.1669   -3.5891 C   0  0  0  0  0  0  0  0  0  0  0  0
   -7.9860   10.0770   -3.0060 C   0  0  0  0  0  0  0  0  0  0  0  0
   -8.4742   11.0243   -1.9849 N   0  3  2  0  0  0  0  0  0  0  0  0
   -9.7343   11.6309   -2.4139 C   0  0  0  0  0  0  0  0  0  0  0  0
  -10.2921   12.5449   -1.3274 C   0  0  0  0  0  0  0  0  0  0  0  0
   -9.3058   13.6379   -0.9381 C   0  0  2  0  0  0  0  0  0  0  0  0
   -7.9539   13.0169   -0.6358 C   0  0  0  0  0  0  0  0  0  0  0  0
   -7.4939   12.0831   -1.7471 C   0  0  0  0  0  0  0  0  0  0  0  0
   -5.9540    5.6900   -2.7789 C   0  0  0  0  0  0  0  0  0  0  0  0
   -5.8196    6.3781   -1.5790 F   0  0  0  0  0  0  0  0  0  0  0  0
   -7.1848    5.0440   -2.7509 F   0  0  0  0  0  0  0  0  0  0  0  0
   -4.9793    4.6960   -2.7843 F   0  0  0  0  0  0  0  0  0  0  0  0
   -9.7173   14.1889    0.0450 F   0  0  0  0  0  0  0  0  0  0  0  0
   -9.9884    9.3586  -11.5873 C   0  0  0  0  0  0  0  0  0  0  0  0
  -10.2464    8.7888  -12.7829 O   0  0  0  0  0  0  0  0  0  0  0  0
  -10.4283   10.4647  -11.3196 O   0  0  0  0  0  0  0  0  0  0  0  0
   -9.7158    7.4752  -13.0225 C   0  0  0  0  0  0  0  0  0  0  0  0
   -9.1951   14.5600   -1.9738 H   0  0  0  0  0  0  0  0  0  0  0  0
   -2.2381   13.4761   -9.3290 H   0  0  0  0  0  0  0  0  0  0  0  0
   -3.5972    7.5729   -6.1660 H   0  0  0  0  0  0  0  0  0  0  0  0
   -3.8923    6.1561   -4.3164 H   0  0  0  0  0  0  0  0  0  0  0  0
   -7.5099    8.8059   -5.8540 H   0  0  0  0  0  0  0  0  0  0  0  0
   -2.2558   10.8949   -9.0270 H   0  0  0  0  0  0  0  0  0  0  0  0
   -3.4737   11.6017  -10.3479 H   0  0  0  0  0  0  0  0  0  0  0  0
   -3.2399   12.3629   -6.4550 H   0  0  0  0  0  0  0  0  0  0  0  0
   -1.4850   12.1938   -7.2511 H   0  0  0  0  0  0  0  0  0  0  0  0
   -0.2440   14.3010   -7.9562 H   0  0  0  0  0  0  0  0  0  0  0  0
   -1.8488   14.9610   -8.8192 H   0  0  0  0  0  0  0  0  0  0  0  0
   -0.1582   16.8700   -8.1651 H   0  0  0  0  0  0  0  0  0  0  0  0
   -1.9399   17.0231   -7.3742 H   0  0  0  0  0  0  0  0  0  0  0  0
   -0.1763   17.5700   -5.6631 H   0  0  0  0  0  0  0  0  0  0  0  0
    0.7698   15.8919   -6.0169 H   0  0  0  0  0  0  0  0  0  0  0  0
   -2.2421   16.3121   -4.9179 H   0  0  0  0  0  0  0  0  0  0  0  0
   -0.6710   15.7251   -3.9250 H   0  0  0  0  0  0  0  0  0  0  0  0
   -0.4576   13.6637   -5.4442 H   0  0  0  0  0  0  0  0  0  0  0  0
   -2.2312   13.8079   -4.6656 H   0  0  0  0  0  0  0  0  0  0  0  0
   -4.1119   14.6072   -8.2651 H   0  0  0  0  0  0  0  0  0  0  0  0
   -6.0528   12.1223  -10.4689 H   0  0  0  0  0  0  0  0  0  0  0  0
   -5.7720   10.3859  -11.3250 H   0  0  0  0  0  0  0  0  0  0  0  0
   -8.1118   10.9422  -11.5962 H   0  0  0  0  0  0  0  0  0  0  0  0
   -8.3139   11.5921   -9.7849 H   0  0  0  0  0  0  0  0  0  0  0  0
   -8.4470    9.5698   -7.7479 H   0  0  0  0  0  0  0  0  0  0  0  0
   -7.7660    7.8780   -8.4601 H   0  0  0  0  0  0  0  0  0  0  0  0
  -10.0799    9.2620   -2.9209 H   0  0  0  0  0  0  0  0  0  0  0  0
   -9.3421    9.4980   -4.7150 H   0  0  0  0  0  0  0  0  0  0  0  0
   -7.1078    9.4010   -2.5440 H   0  0  0  0  0  0  0  0  0  0  0  0
   -7.5291   10.7101   -3.9190 H   0  0  0  0  0  0  0  0  0  0  0  0
  -10.5091   10.7479   -2.6622 H   0  0  0  0  0  0  0  0  0  0  0  0
   -9.5520   12.2629   -3.4193 H   0  0  0  0  0  0  0  0  0  0  0  0
  -11.2779   13.0980   -1.7301 H   0  0  0  0  0  0  0  0  0  0  0  0
  -10.5781   11.9110   -0.3479 H   0  0  0  0  0  0  0  0  0  0  0  0
   -8.0538   12.4062    0.3931 H   0  0  0  0  0  0  0  0  0  0  0  0
   -7.1288   13.8769   -0.4890 H   0  0  0  0  0  0  0  0  0  0  0  0
   -7.3409   12.7000   -2.7652 H   0  0  0  0  0  0  0  0  0  0  0  0
   -6.4350   11.6081   -1.4360 H   0  0  0  0  0  0  0  0  0  0  0  0
   -2.8877   14.7486   -6.7174 H   0  0  0  0  0  0  0  0  0  0  0  0
   -8.6154   10.5657   -1.2092 H   0  0  0  0  0  0  0  0  0  0  0  0
   -8.5290    7.4818  -12.8470 H   0  0  0  0  0  0  0  0  0  0  0  0
   -9.9522    7.1607  -14.1563 H   0  0  0  0  0  0  0  0  0  0  0  0
  -10.2365    6.6881  -12.2818 H   0  0  0  0  0  0  0  0  0  0  0  0
  1  2  2  0  0  0  0
  1  6  1  0  0  0  0
  1 48  1  0  0  0  0
  2  3  1  0  0  0  0
  2 49  1  0  0  0  0
  3  4  2  0  0  0  0
  3 37  1  0  0  0  0
  4  5  1  0  0  0  0
  4 28  1  0  0  0  0
  5  6  2  0  0  0  0
  5 50  1  0  0  0  0
  6  7  1  0  0  0  0
  7  8  1  0  0  0  0
  7 11  2  0  0  0  0
  8  9  2  0  0  0  0
  8 25  1  0  0  0  0
  9 10  1  0  0  0  0
  9 22  1  0  0  0  0
 10 11  1  0  0  0  0
 10 12  1  0  0  0  0
 12 13  1  0  0  0  0
 12 51  1  0  0  0  0
 12 52  1  0  0  0  0
 13 14  1  0  0  0  0
 13 21  1  0  0  0  0
 13 47  1  6  0  0  0
 14 15  1  0  0  0  0
 14 53  1  0  0  0  0
 14 54  1  0  0  0  0
 15 16  1  0  0  0  0
 15 20  1  0  0  0  0
 15 84  1  0  0  0  0
 16 17  1  0  0  0  0
 16 55  1  0  0  0  0
 16 56  1  0  0  0  0
 17 18  1  0  0  0  0
 17 57  1  0  0  0  0
 17 58  1  0  0  0  0
 18 19  1  0  0  0  0
 18 59  1  0  0  0  0
 18 60  1  0  0  0  0
 19 20  1  0  0  0  0
 19 61  1  0  0  0  0
 19 62  1  0  0  0  0
 20 63  1  0  0  0  0
 20 64  1  0  0  0  0
 21 65  1  0  0  0  0
 22 23  1  0  0  0  0
 22 66  1  0  0  0  0
 22 67  1  0  0  0  0
 23 24  1  0  0  0  0
 23 68  1  0  0  0  0
 23 69  1  0  0  0  0
 24 25  1  0  0  0  0
 24 26  1  0  0  0  0
 25 70  1  0  0  0  0
 25 71  1  0  0  0  0
 26 27  2  0  0  0  0
 28 29  1  0  0  0  0
 29 30  1  0  0  0  0
 29 72  1  0  0  0  0
 29 73  1  0  0  0  0
 30 31  1  0  0  0  0
 30 74  1  0  0  0  0
 30 75  1  0  0  0  0
 31 32  1  0  0  0  0
 31 36  1  0  0  0  0
 31 85  1  1  0  0  0
 32 33  1  0  0  0  0
 32 76  1  0  0  0  0
 32 77  1  0  0  0  0
 33 34  1  0  0  0  0
 33 78  1  0  0  0  0
 33 79  1  0  0  0  0
 34 35  1  0  0  0  0
 34 41  1  0  0  0  0
 34 46  1  6  0  0  0
 35 36  1  0  0  0  0
 35 80  1  0  0  0  0
 35 81  1  0  0  0  0
 36 82  1  0  0  0  0
 36 83  1  0  0  0  0
 37 38  1  0  0  0  0
 37 39  1  0  0  0  0
 37 40  1  0  0  0  0
 42 26  1  0  0  0  0
 43 42  1  0  0  0  0
 44 42  2  0  0  0  0
 45 43  1  0  0  0  0
 86 45  1  0  0  0  0
 87 45  1  0  0  0  0
 88 45  1  0  0  0  0
M  CHG  2  15   1  31   1
M  END
$$$$
