# Molecule written by the XED library from Cresset
@<TRIPOS>MOLECULE
CatS_181
   102    107      1
SMALL
USER_CHARGES
@<TRIPOS>ATOM
      1  C4         -0.0089   16.3385   -5.9258 C.3       1 MOL1       -0.0558
      2  C5         -1.2464   15.9982   -5.0642 C.3       1 MOL1       -0.0787
      3  C6         -1.7730   14.5941   -5.4242 C.3       1 MOL1       -0.0624
      4  N2         -2.0996   14.4827   -6.8940 N.4       1 MOL1       -0.2282
      5  C7         -0.9230   14.8768   -7.7596 C.3       1 MOL1       -0.0624
      6  C8         -0.4177   16.2905   -7.4109 C.3       1 MOL1       -0.0787
      7  C9         -2.6548   13.1180   -7.2246 C.3       1 MOL1       -0.0328
      8  C10        -3.4128   13.0569   -8.5708 C.3       1 MOL1        0.0191
      9  C11        -3.3396   11.6547   -9.1997 C.3       1 MOL1        0.0979
     10  N3         -4.3388   10.6963   -8.7084 N.pl3     1 MOL1       -0.0670
     11  C12        -5.5310   10.3253   -9.2410 C.ar      1 MOL1        0.0572
     12  C13        -6.2053    9.4822   -8.4579 C.ar      1 MOL1       -0.0684
     13  C14        -5.3401    9.2807   -7.3577 C.ar      1 MOL1        0.0392
     14  N4         -4.2644   10.0232   -7.5359 N.2       1 MOL1       -0.2943
     15  C15        -5.5280    8.4130   -6.2060 C.ar      1 MOL1       -0.0066
     16  C16        -4.4677    7.7389   -5.6283 C.ar      1 MOL1       -0.0846
     17  C17        -4.6601    6.9417   -4.5282 C.ar      1 MOL1       -0.0687
     18  C18        -5.9101    6.7699   -3.9697 C.ar      1 MOL1        0.0171
     19  C19        -6.9758    7.4399   -4.5579 C.ar      1 MOL1        0.0480
     20  C20        -6.7839    8.2539   -5.6503 C.ar      1 MOL1       -0.0655
     21  S1         -8.6624    7.2887   -3.9527 S.3       1 MOL1       -0.1783
     22  C21        -9.2128    8.9475   -3.4726 C.3       1 MOL1       -0.0087
     23  C22        -8.0196    9.8149   -3.0205 C.3       1 MOL1       -0.0441
     24  N5         -8.4066   10.8677   -2.0653 N.4       1 MOL1       -0.2282
     25  C23        -9.7689   11.3439   -2.3741 C.3       1 MOL1       -0.0507
     26  C24       -10.2311   12.4114   -1.3620 C.3       1 MOL1       -0.0181
     27  C25        -9.2439   13.5919   -1.3598 C.3       1 MOL1        0.1870
     28  C26        -7.8202   13.0743   -1.0853 C.3       1 MOL1       -0.0181
     29  C27        -7.4531   11.9951   -2.1228 C.3       1 MOL1       -0.0507
     30  C28        -5.9449    5.8566   -2.7418 C.3       1 MOL1        0.4149
     31  F1         -4.9473    4.8883   -2.7810 F         1 MOL1       -0.1514
     32  F2         -7.1419    5.1656   -2.5929 F         1 MOL1       -0.1514
     33  F3         -5.7381    6.5908   -1.5779 F         1 MOL1       -0.1514
     34  C29        -7.5837    8.9489   -8.8235 C.3       1 MOL1        0.1169
     35  N6         -8.2559    9.7459   -9.8749 N.3       1 MOL1       -0.4606
     36  C30        -7.3182    9.9450  -11.0006 C.3       1 MOL1        0.0844
     37  C31        -6.0940   10.7932  -10.5731 C.3       1 MOL1       -0.0158
     38  S2         -9.7912    9.3099  -10.1694 S.3       1 MOL1        0.4316
     39  O3         -9.8657    7.9419   -9.7664 O.2       1 MOL1       -0.3139
     40  O4        -10.0690    9.5802  -11.5446 O.2       1 MOL1       -0.3139
     41  C32       -10.9193   10.2896   -9.1309 C.3       1 MOL1        0.0421
     42  H33        -9.5604   14.3841   -0.5172 F         1 MOL1       -0.1808
     43  H          -9.2595   14.0938   -2.4521 F         1 MOL1       -0.1808
     44  C           0.6588   17.6948   -5.5706 C.3       1 MOL1       -0.0603
     45  C           1.6813   17.5225   -4.4249 C.3       1 MOL1       -0.0874
     46  C           2.4179   18.8525   -4.1695 C.3       1 MOL1       -0.0916
     47  C           1.4095   19.9598   -3.8041 C.3       1 MOL1       -0.0921
     48  C           0.3864   20.1371   -4.9439 C.3       1 MOL1       -0.0916
     49  C          -0.3511   18.8079   -5.2015 C.3       1 MOL1       -0.0874
     50  H18        -4.5659   13.3632   -8.4237 O.3       1 MOL1       -0.4408
     51  H19        -2.8848   13.8326   -9.3196 H         1 MOL1        0.0680
     52  H8         -0.9572   16.0262   -3.9003 H         1 MOL1        0.0470
     53  H9         -2.1164   16.7945   -5.2855 H         1 MOL1        0.0470
     54  H10        -2.7427   14.3689   -4.7525 H         1 MOL1        0.0529
     55  H11        -0.9256   13.7866   -5.1600 H         1 MOL1        0.0529
     56  H12        -1.1758   14.9046   -8.9294 H         1 MOL1        0.0529
     57  H13        -0.0361   14.0875   -7.5850 H         1 MOL1        0.0529
     58  H14         0.5240   16.5327   -8.1131 H         1 MOL1        0.0470
     59  H15        -1.2895   17.0876   -7.6195 H         1 MOL1        0.0470
     60  H16        -3.4246   12.7621   -6.3749 H         1 MOL1        0.0549
     61  H17        -1.7163   12.3715   -7.2171 H         1 MOL1        0.0549
     62  H20        -3.4749   11.7685  -10.3870 H         1 MOL1        0.0624
     63  H21        -2.2549   11.1929   -8.9842 H         1 MOL1        0.0624
     64  H22        -3.5486    7.8383   -6.0088 H         1 MOL1        0.0910
     65  H23        -3.8719    6.4755   -4.1251 H         1 MOL1        0.0908
     66  H24        -7.5650    8.7320   -6.0517 H         1 MOL1        0.0929
     67  H25        -9.7313    9.4498   -4.4317 H         1 MOL1        0.0553
     68  H26       -10.0244    8.8693   -2.5916 H         1 MOL1        0.0553
     69  H27        -7.5949   10.3440   -4.0119 H         1 MOL1        0.0547
     70  H28        -7.1413    9.1327   -2.5673 H         1 MOL1        0.0547
     71  H29       -10.5485   10.4349   -2.3164 H         1 MOL1        0.0529
     72  H30        -9.7884   11.8009   -3.4841 H         1 MOL1        0.0529
     73  H31       -10.2649   11.9165   -0.2700 H         1 MOL1        0.0526
     74  H32       -11.3257   12.8013   -1.6600 H         1 MOL1        0.0526
     75  H35        -7.0418   13.9840   -1.1570 H         1 MOL1        0.0526
     76  H36        -7.7743   12.5990    0.0153 H         1 MOL1        0.0526
     77  H37        -7.4593   12.4814   -3.2210 H         1 MOL1        0.0529
     78  H38        -6.3400   11.6217   -1.8749 H         1 MOL1        0.0529
     79  H39        -7.4860    7.8083   -9.1819 H         1 MOL1        0.0628
     80  H40        -8.2798    8.9947   -7.8457 H         1 MOL1        0.0628
     81  H41        -6.9428    8.8783  -11.4010 H         1 MOL1        0.0601
     82  H42        -7.8698   10.5229  -11.8949 H         1 MOL1        0.0601
     83  H43        -6.4274   11.9415  -10.4688 H         1 MOL1        0.0516
     84  H44        -5.2559   10.6981  -11.4259 H         1 MOL1        0.0516
     85  H45       -11.0139   11.4131   -9.5425 H         1 MOL1        0.0588
     86  H46       -12.0132    9.7992   -9.1411 H         1 MOL1        0.0588
     87  H47       -10.5202   10.3164   -7.9992 H         1 MOL1        0.0588
     88  H          -2.7616   15.0872   -7.0587 H         1 MOL1        0.1921
     89  H          -8.4049   10.5162   -1.2236 H         1 MOL1        0.1922
     90  H           1.1176   17.1803   -3.4233 H         1 MOL1        0.0463
     91  H          -1.1415   18.9584   -6.0911 H         1 MOL1        0.0463
     92  H           3.2009   18.7090   -3.2714 H         1 MOL1        0.0460
     93  H           0.8320   19.6530   -2.7978 H         1 MOL1        0.0460
     94  H          -0.4101   20.9797   -4.6339 H         1 MOL1        0.0460
     95  H           2.4996   16.6976   -4.7248 H         1 MOL1        0.0463
     96  H          -0.9257   18.5003   -4.1940 H         1 MOL1        0.0463
     97  H           3.0072   19.1723   -5.1651 H         1 MOL1        0.0460
     98  H           1.9967   20.9914   -3.6287 H         1 MOL1        0.0460
     99  H           0.9596   20.4783   -5.9416 H         1 MOL1        0.0460
    100  H           1.2875   18.0823   -6.5167 H         1 MOL1        0.0490
    101  H           0.7935   15.4604   -5.7701 H         1 MOL1        0.0490
    102  H          -5.0805   13.2718   -9.2833 H         1 MOL1        0.3291
@<TRIPOS>BOND
     1      1      2 1 
     2      1      6 1 
     3      2      3 1 
     4      3      4 1 
     5      4      5 1 
     6      4      7 1 
     7      5      6 1 
     8      7      8 1 
     9      8      9 1 
    10      8     50 1 
    11      9     10 1 
    12     10     11 ar
    13     10     14 ar
    14     11     12 ar
    15     11     37 1 
    16     12     13 ar
    17     12     34 1 
    18     13     14 ar
    19     13     15 1 
    20     15     16 ar
    21     15     20 ar
    22     16     17 ar
    23     17     18 ar
    24     18     19 ar
    25     18     30 1 
    26     19     20 ar
    27     19     21 1 
    28     21     22 1 
    29     22     23 1 
    30     23     24 1 
    31     24     25 1 
    32     24     29 1 
    33     25     26 1 
    34     26     27 1 
    35     27     28 1 
    36     27     42 1 
    37     28     29 1 
    38     30     31 1 
    39     30     32 1 
    40     30     33 1 
    41     34     35 1 
    42     35     36 1 
    43     35     38 1 
    44     36     37 1 
    45     38     39 2 
    46     38     40 2 
    47     38     41 1 
    48     43     27 1 
    49     44      1 1 
    50     44     49 1 
    51     45     44 1 
    52     46     45 1 
    53     47     46 1 
    54     48     47 1 
    55     49     48 1 
    56      2     52 1 
    57      2     53 1 
    58      3     54 1 
    59      3     55 1 
    60      5     56 1 
    61      5     57 1 
    62      6     58 1 
    63      6     59 1 
    64      7     60 1 
    65      7     61 1 
    66      8     51 1 
    67      9     62 1 
    68      9     63 1 
    69     16     64 1 
    70     17     65 1 
    71     20     66 1 
    72     22     67 1 
    73     22     68 1 
    74     23     69 1 
    75     23     70 1 
    76     25     71 1 
    77     25     72 1 
    78     26     73 1 
    79     26     74 1 
    80     28     75 1 
    81     28     76 1 
    82     29     77 1 
    83     29     78 1 
    84     34     79 1 
    85     34     80 1 
    86     36     81 1 
    87     36     82 1 
    88     37     83 1 
    89     37     84 1 
    90     41     85 1 
    91     41     86 1 
    92     41     87 1 
    93     50    102 1 
    94     88      4 1 
    95     89     24 1 
    96     90     45 1 
    97     91     49 1 
    98     92     46 1 
    99     93     47 1 
   100     94     48 1 
   101     95     45 1 
   102     96     49 1 
   103     97     46 1 
   104     98     47 1 
   105     99     48 1 
   106    100     44 1 
   107    101      1 1 
@<TRIPOS>SUBSTRUCTURE
     1 MOL1         1 MOLECULE          1 A
