CatS_79
 OpenBabel05281909343D

 89 93  0  0  1  0  0  0  0  0999 V2000
    0.0489   17.7811   -5.3529 C   0  0  0  0  0  0  0  0  0  0  0  0
   -0.2660   16.3551   -5.8340 C   0  0  1  0  0  0  0  0  0  0  0  0
   -1.2538   15.6810   -4.8972 C   0  0  0  0  0  0  0  0  0  0  0  0
   -1.5609   14.2751   -5.3909 C   0  0  0  0  0  0  0  0  0  0  0  0
   -2.1151   14.2890   -6.7482 N   0  3  1  0  0  0  0  0  0  0  0  0
   -1.1621   14.9222   -7.6830 C   0  0  0  0  0  0  0  0  0  0  0  0
   -0.8059   16.3451   -7.2578 C   0  0  0  0  0  0  0  0  0  0  0  0
   -2.4761   12.9208   -7.1928 C   0  0  0  0  0  0  0  0  0  0  0  0
   -2.9111   12.8931   -8.6741 C   0  0  1  0  0  0  0  0  0  0  0  0
   -3.1711   11.4957   -9.2858 C   0  0  0  0  0  0  0  0  0  0  0  0
   -4.2949   10.6779   -8.7622 N   0  0  0  0  0  0  0  0  0  0  0  0
   -5.5402   10.4079   -9.2471 C   0  0  0  0  0  0  0  0  0  0  0  0
   -6.2649    9.6261   -8.4438 C   0  0  0  0  0  0  0  0  0  0  0  0
   -5.3880    9.3290   -7.3769 C   0  0  0  0  0  0  0  0  0  0  0  0
   -4.2540    9.9679   -7.6001 N   0  0  0  0  0  0  0  0  0  0  0  0
   -5.5990    8.4481   -6.2289 C   0  0  0  0  0  0  0  0  0  0  0  0
   -4.5370    7.7091   -5.7479 C   0  0  0  0  0  0  0  0  0  0  0  0
   -4.6930    6.8510   -4.6850 C   0  0  0  0  0  0  0  0  0  0  0  0
   -5.9038    6.6870   -4.0420 C   0  0  0  0  0  0  0  0  0  0  0  0
   -6.9802    7.4360   -4.5089 C   0  0  0  0  0  0  0  0  0  0  0  0
   -6.8169    8.2870   -5.5841 C   0  0  0  0  0  0  0  0  0  0  0  0
   -8.6340    7.4150   -3.7770 S   0  0  0  0  0  0  0  0  0  0  0  0
   -9.4051    8.9130   -3.0801 C   0  0  0  0  0  0  0  0  0  0  0  0
   -8.2982    9.9501   -2.7838 C   0  0  0  0  0  0  0  0  0  0  0  0
   -8.5919   11.0280   -1.8162 N   0  3  1  0  0  0  0  0  0  0  0  0
   -7.6731   12.1480   -2.0159 C   0  0  0  0  0  0  0  0  0  0  0  0
   -7.8920   13.2301   -0.9670 C   0  0  0  0  0  0  0  0  0  0  0  0
   -9.3211   13.7401   -0.9650 C   0  0  1  0  0  0  0  0  0  0  0  0
  -10.2821   12.5620   -0.9010 C   0  0  0  0  0  0  0  0  0  0  0  0
   -9.9669   11.5091   -1.9592 C   0  0  0  0  0  0  0  0  0  0  0  0
   -5.8751    5.6939   -2.8790 C   0  0  0  0  0  0  0  0  0  0  0  0
   -5.6702    6.2981   -1.6410 F   0  0  0  0  0  0  0  0  0  0  0  0
   -4.8500    4.7720   -2.9961 F   0  0  0  0  0  0  0  0  0  0  0  0
   -7.0691    4.9890   -2.7890 F   0  0  0  0  0  0  0  0  0  0  0  0
   -7.6942    9.1997   -8.7798 C   0  0  0  0  0  0  0  0  0  0  0  0
   -8.3089    9.7778  -10.0022 N   0  0  0  0  0  0  0  0  0  0  0  0
   -7.2711    9.9599  -11.0359 C   0  0  0  0  0  0  0  0  0  0  0  0
   -6.1331   10.8799  -10.5609 C   0  0  0  0  0  0  0  0  0  0  0  0
   -9.7621    9.1079  -10.3609 S   0  0  0  0  0  0  0  0  0  0  0  0
  -10.0940    9.1551  -11.7479 O   0  0  0  0  0  0  0  0  0  0  0  0
   -9.8229    7.7359   -9.9771 O   0  0  0  0  0  0  0  0  0  0  0  0
  -10.9370   10.1050   -9.3968 C   0  0  0  0  0  0  0  0  0  0  0  0
   -4.0841   13.7000   -8.8601 O   0  0  0  0  0  0  0  0  0  0  0  0
   -9.4669   14.4410   -0.0018 F   0  0  0  0  0  0  0  0  0  0  0  0
   -9.5440   14.4890   -2.1180 H   0  0  0  0  0  0  0  0  0  0  0  0
   -1.9339   13.3299   -9.2059 H   0  0  0  0  0  0  0  0  0  0  0  0
   -0.9600   18.4298   -5.3150 H   0  0  0  0  0  0  0  0  0  0  0  0
    0.5290   17.7291   -4.2540 H   0  0  0  0  0  0  0  0  0  0  0  0
    0.8330   18.2959   -6.1021 H   0  0  0  0  0  0  0  0  0  0  0  0
    0.7580   15.7279   -5.8041 H   0  0  0  0  0  0  0  0  0  0  0  0
   -2.2781   16.3051   -4.8459 H   0  0  0  0  0  0  0  0  0  0  0  0
   -0.7688   15.6040   -3.8020 H   0  0  0  0  0  0  0  0  0  0  0  0
   -0.5609   13.6121   -5.3620 H   0  0  0  0  0  0  0  0  0  0  0  0
   -2.3700   13.8382   -4.6211 H   0  0  0  0  0  0  0  0  0  0  0  0
   -1.7390   14.9248   -8.7362 H   0  0  0  0  0  0  0  0  0  0  0  0
   -0.1899   14.2320   -7.8371 H   0  0  0  0  0  0  0  0  0  0  0  0
   -1.7799   17.0361   -7.3851 H   0  0  0  0  0  0  0  0  0  0  0  0
    0.0162   16.7691   -8.0250 H   0  0  0  0  0  0  0  0  0  0  0  0
   -3.3530   12.4800   -6.5030 H   0  0  0  0  0  0  0  0  0  0  0  0
   -1.5030   12.2250   -7.0891 H   0  0  0  0  0  0  0  0  0  0  0  0
   -2.1681   10.8539   -9.1409 H   0  0  0  0  0  0  0  0  0  0  0  0
   -3.3410   11.6390  -10.4651 H   0  0  0  0  0  0  0  0  0  0  0  0
   -3.6401    7.7949   -6.1829 H   0  0  0  0  0  0  0  0  0  0  0  0
   -3.8991    6.3320   -4.3700 H   0  0  0  0  0  0  0  0  0  0  0  0
   -7.6050    8.8100   -5.9048 H   0  0  0  0  0  0  0  0  0  0  0  0
  -10.0010    8.6370   -2.0759 H   0  0  0  0  0  0  0  0  0  0  0  0
  -10.1293    9.4432   -3.8749 H   0  0  0  0  0  0  0  0  0  0  0  0
   -7.3610    9.3350   -2.3551 H   0  0  0  0  0  0  0  0  0  0  0  0
   -7.9699   10.4361   -3.8320 H   0  0  0  0  0  0  0  0  0  0  0  0
   -7.8140   12.6391   -3.1030 H   0  0  0  0  0  0  0  0  0  0  0  0
   -6.5581   11.7099   -1.9542 H   0  0  0  0  0  0  0  0  0  0  0  0
   -7.6108   12.8141    0.1240 H   0  0  0  0  0  0  0  0  0  0  0  0
   -7.1960   14.1780   -1.2140 H   0  0  0  0  0  0  0  0  0  0  0  0
  -10.2020   12.0832    0.1970 H   0  0  0  0  0  0  0  0  0  0  0  0
  -11.4081   12.9490   -1.0611 H   0  0  0  0  0  0  0  0  0  0  0  0
  -10.0921   11.9881   -3.0519 H   0  0  0  0  0  0  0  0  0  0  0  0
  -10.7500   10.6070   -1.8399 H   0  0  0  0  0  0  0  0  0  0  0  0
   -8.4072    9.5060   -7.8653 H   0  0  0  0  0  0  0  0  0  0  0  0
   -7.6970    8.0050   -8.8839 H   0  0  0  0  0  0  0  0  0  0  0  0
   -7.7042   10.5312  -11.9961 H   0  0  0  0  0  0  0  0  0  0  0  0
   -6.8282    8.8930  -11.3600 H   0  0  0  0  0  0  0  0  0  0  0  0
   -6.5319   12.0059  -10.4431 H   0  0  0  0  0  0  0  0  0  0  0  0
   -5.3500   10.8068  -11.4581 H   0  0  0  0  0  0  0  0  0  0  0  0
  -10.8769   11.2569   -9.7341 H   0  0  0  0  0  0  0  0  0  0  0  0
  -12.0491    9.7079   -9.6159 H   0  0  0  0  0  0  0  0  0  0  0  0
  -10.7199    9.9971   -8.2231 H   0  0  0  0  0  0  0  0  0  0  0  0
   -3.9901   14.6071   -8.4399 H   0  0  0  0  0  0  0  0  0  0  0  0
   -2.8752   14.7924   -6.7320 H   0  0  0  0  0  0  0  0  0  0  0  0
   -8.4932   10.6973   -0.9709 H   0  0  0  0  0  0  0  0  0  0  0  0
  2  1  1  0  0  0  0
  2 50  1  1  0  0  0
  3  2  1  0  0  0  0
  4  3  1  0  0  0  0
  5  4  1  0  0  0  0
  5 88  1  1  0  0  0
  6  5  1  0  0  0  0
  7  2  1  0  0  0  0
  7  6  1  0  0  0  0
  8  5  1  0  0  0  0
  9  8  1  0  0  0  0
  9 46  1  6  0  0  0
 10  9  1  0  0  0  0
 11 10  1  0  0  0  0
 12 11  1  0  0  0  0
 13 12  2  0  0  0  0
 14 13  1  0  0  0  0
 15 11  1  0  0  0  0
 15 14  2  0  0  0  0
 16 14  1  0  0  0  0
 17 16  2  0  0  0  0
 18 17  1  0  0  0  0
 19 18  2  0  0  0  0
 20 19  1  0  0  0  0
 21 16  1  0  0  0  0
 21 20  2  0  0  0  0
 22 20  1  0  0  0  0
 23 22  1  0  0  0  0
 24 23  1  0  0  0  0
 25 24  1  0  0  0  0
 25 89  1  1  0  0  0
 26 25  1  0  0  0  0
 27 26  1  0  0  0  0
 28 27  1  0  0  0  0
 28 45  1  6  0  0  0
 29 28  1  0  0  0  0
 30 25  1  0  0  0  0
 30 29  1  0  0  0  0
 31 19  1  0  0  0  0
 32 31  1  0  0  0  0
 33 31  1  0  0  0  0
 34 31  1  0  0  0  0
 35 13  1  0  0  0  0
 36 35  1  0  0  0  0
 37 36  1  0  0  0  0
 38 12  1  0  0  0  0
 38 37  1  0  0  0  0
 39 36  1  0  0  0  0
 40 39  2  0  0  0  0
 41 39  2  0  0  0  0
 42 39  1  0  0  0  0
 43  9  1  0  0  0  0
 44 28  1  0  0  0  0
 47  1  1  0  0  0  0
 48  1  1  0  0  0  0
 49  1  1  0  0  0  0
 51  3  1  0  0  0  0
 52  3  1  0  0  0  0
 53  4  1  0  0  0  0
 54  4  1  0  0  0  0
 55  6  1  0  0  0  0
 56  6  1  0  0  0  0
 57  7  1  0  0  0  0
 58  7  1  0  0  0  0
 59  8  1  0  0  0  0
 60  8  1  0  0  0  0
 61 10  1  0  0  0  0
 62 10  1  0  0  0  0
 63 17  1  0  0  0  0
 64 18  1  0  0  0  0
 65 21  1  0  0  0  0
 66 23  1  0  0  0  0
 67 23  1  0  0  0  0
 68 24  1  0  0  0  0
 69 24  1  0  0  0  0
 70 26  1  0  0  0  0
 71 26  1  0  0  0  0
 72 27  1  0  0  0  0
 73 27  1  0  0  0  0
 74 29  1  0  0  0  0
 75 29  1  0  0  0  0
 76 30  1  0  0  0  0
 77 30  1  0  0  0  0
 78 35  1  0  0  0  0
 79 35  1  0  0  0  0
 80 37  1  0  0  0  0
 81 37  1  0  0  0  0
 82 38  1  0  0  0  0
 83 38  1  0  0  0  0
 84 42  1  0  0  0  0
 85 42  1  0  0  0  0
 86 42  1  0  0  0  0
 87 43  1  0  0  0  0
M  CHG  2   5   1  25   1
M  END
$$$$
