# Molecule written by the XED library from Cresset
@<TRIPOS>MOLECULE
CatS_76
    92     96      1
SMALL
USER_CHARGES
@<TRIPOS>ATOM
      1  C1          1.3340   16.0009   -5.8728 C.3       1 MOL1       -0.1161
      2  C2         -0.0730   16.6140   -5.7500 C.3       1 MOL1       -0.0443
      3  C3         -0.9229   15.7400   -4.8440 C.3       1 MOL1       -0.0762
      4  C4         -1.1369   14.3781   -5.4879 C.3       1 MOL1       -0.0619
      5  N1         -1.7890   14.4969   -6.7951 N.4       1 MOL1       -0.2282
      6  C5         -0.9682   15.3260   -7.7038 C.3       1 MOL1       -0.0619
      7  C6         -0.7130   16.7181   -7.1280 C.3       1 MOL1       -0.0762
      8  C7         -2.0429   13.1670   -7.4038 C.3       1 MOL1       -0.0328
      9  C8         -3.3092   13.0530   -8.2950 C.3       1 MOL1        0.0191
     10  C9         -3.4939   11.6569   -8.9740 C.3       1 MOL1        0.0979
     11  N2         -4.3588   10.4680   -8.7431 N.pl3     1 MOL1       -0.0670
     12  C10        -5.5841   10.1769   -9.2680 C.ar      1 MOL1        0.0572
     13  C11        -6.2739    9.2902   -8.5491 C.ar      1 MOL1       -0.0684
     14  C12        -5.4101    8.9540   -7.4850 C.ar      1 MOL1        0.0392
     15  N3         -4.2989    9.6549   -7.6450 N.2       1 MOL1       -0.2943
     16  C13        -5.6732    8.0780   -6.3410 C.ar      1 MOL1       -0.0066
     17  C14        -4.6270    7.3002   -5.8859 C.ar      1 MOL1       -0.0846
     18  C15        -4.7569    6.5309   -4.7570 C.ar      1 MOL1       -0.0687
     19  C16        -5.9250    6.5021   -4.0209 C.ar      1 MOL1        0.0171
     20  C17        -7.0082    7.2399   -4.4828 C.ar      1 MOL1        0.0480
     21  C18        -6.8689    7.9990   -5.6310 C.ar      1 MOL1       -0.0655
     22  S1         -8.6062    7.3360   -3.6278 S.3       1 MOL1       -0.1783
     23  C19        -9.4420    8.9121   -3.1979 C.3       1 MOL1       -0.0087
     24  C20        -8.3441    9.9560   -2.8598 C.3       1 MOL1       -0.0441
     25  N4         -8.6159   11.0730   -1.9191 N.4       1 MOL1       -0.2284
     26  C21       -10.0009   11.5208   -2.0631 C.3       1 MOL1       -0.0566
     27  C22       -10.3279   12.6040   -1.0380 C.3       1 MOL1       -0.0467
     28  C23        -9.3921   13.7980   -1.1520 C.3       1 MOL1        0.0498
     29  C24        -7.9519   13.3158   -1.1531 C.3       1 MOL1       -0.0467
     30  C25        -7.7230   12.2040   -2.1670 C.3       1 MOL1       -0.0566
     31  C26        -5.8591    5.6670   -2.7468 C.3       1 MOL1        0.4149
     32  F2         -7.0141    4.9251   -2.5170 F         1 MOL1       -0.1514
     33  F3         -5.6490    6.4550   -1.6220 F         1 MOL1       -0.1514
     34  F4         -4.8280    4.7410   -2.8281 F         1 MOL1       -0.1514
     35  C27        -7.6890    8.8531   -8.9000 C.3       1 MOL1        0.1169
     36  N5         -8.3880    9.7009   -9.8890 N.3       1 MOL1       -0.4606
     37  C28        -7.4590   10.0388  -10.9910 C.3       1 MOL1        0.0844
     38  C29        -6.2001   10.8081  -10.5069 C.3       1 MOL1       -0.0158
     39  S2         -9.9431    9.2751  -10.1869 S.3       1 MOL1        0.4316
     40  O1         -9.9671    7.8830   -9.8720 O.2       1 MOL1       -0.3139
     41  O2        -10.1030    9.4900  -11.5879 O.2       1 MOL1       -0.3139
     42  C30       -11.5720    9.7760   -9.5750 C.3       1 MOL1        0.0421
     43  C31         0.1061   18.0260   -5.1611 C.3       1 MOL1       -0.1161
     44  H28        -9.5811   14.5220   -0.2140 F         1 MOL1       -0.2169
     45  H1         -4.2390   13.1649   -7.5461 O.3       1 MOL1       -0.4408
     46  O3         -3.4289   14.1700   -9.1869 H         1 MOL1        0.0680
     47  H          -9.6721   14.4920   -2.3298 H         1 MOL1        0.0735
     48  H2          2.0380   16.7251   -6.5210 H         1 MOL1        0.0438
     49  H3          1.8090   15.8709   -4.7781 H         1 MOL1        0.0438
     50  H4          1.2661   14.9289   -6.4060 H         1 MOL1        0.0438
     51  H5         -1.9700   16.2879   -4.6292 H         1 MOL1        0.0472
     52  H6         -0.3639   15.6002   -3.7910 H         1 MOL1        0.0472
     53  H7         -0.0640   13.8450   -5.4830 H         1 MOL1        0.0529
     54  H8         -1.8560   13.7671   -4.7460 H         1 MOL1        0.0529
     55  H9          0.0861   14.7890   -7.9052 H         1 MOL1        0.0529
     56  H10        -1.5380   15.4579   -8.7510 H         1 MOL1        0.0529
     57  H11        -1.7710   17.2780   -7.0540 H         1 MOL1        0.0472
     58  H12        -0.0081   17.3400   -7.8758 H         1 MOL1        0.0472
     59  H13        -1.1191   12.8881   -8.1170 H         1 MOL1        0.0549
     60  H14        -2.1010   12.3480   -6.5281 H         1 MOL1        0.0549
     61  H15        -3.6390   11.8999  -10.1399 H         1 MOL1        0.0624
     62  H16        -2.3970   11.1729   -8.8922 H         1 MOL1        0.0624
     63  H17        -3.7551    7.3129   -6.3769 H         1 MOL1        0.0910
     64  H18        -3.9720    5.9941   -4.4509 H         1 MOL1        0.0908
     65  H19        -7.6540    8.5292   -5.9439 H         1 MOL1        0.0929
     66  H20       -10.1221    8.7890   -2.2208 H         1 MOL1        0.0553
     67  H21       -10.1121    9.2961   -4.1160 H         1 MOL1        0.0553
     68  H22        -7.3820    9.3489   -2.4770 H         1 MOL1        0.0547
     69  H23        -8.0590   10.4589   -3.9129 H         1 MOL1        0.0547
     70  H24       -10.6991   10.5538   -1.9230 H         1 MOL1        0.0529
     71  H25       -10.1970   11.9491   -3.1671 H         1 MOL1        0.0529
     72  H26       -11.4379   13.0200   -1.2280 H         1 MOL1        0.0497
     73  H27       -10.2709   12.1601    0.0760 H         1 MOL1        0.0497
     74  H29        -7.6901   12.9480   -0.0398 H         1 MOL1        0.0497
     75  H30        -7.2301   14.2411   -1.4129 H         1 MOL1        0.0497
     76  H31        -7.9249   12.6461   -3.2639 H         1 MOL1        0.0529
     77  H32        -6.5719   11.8760   -2.0899 H         1 MOL1        0.0529
     78  H33        -8.3719    8.9079   -7.9170 H         1 MOL1        0.0628
     79  H34        -7.6540    7.7251   -9.3069 H         1 MOL1        0.0628
     80  H35        -7.1280    9.0280  -11.5450 H         1 MOL1        0.0601
     81  H36        -8.0411   10.7380  -11.7742 H         1 MOL1        0.0601
     82  H37        -5.3911   10.8440  -11.3929 H         1 MOL1        0.0516
     83  H38        -6.5251   11.9298  -10.2320 H         1 MOL1        0.0516
     84  H39       -11.7831   10.9190   -9.8742 H         1 MOL1        0.0588
     85  H40       -11.6088    9.6609   -8.3811 H         1 MOL1        0.0588
     86  H41       -12.4130    9.0752  -10.0660 H         1 MOL1        0.0588
     87  H43        -0.9660   18.5279   -4.9668 H         1 MOL1        0.0438
     88  H44         0.7302   18.7019   -5.9332 H         1 MOL1        0.0438
     89  H45         0.7101   17.9570   -4.1260 H         1 MOL1        0.0438
     90  H          -2.5939   14.9081   -6.6694 H         1 MOL1        0.1922
     91  H          -8.4917   10.7729   -1.0665 H         1 MOL1        0.1921
     92  H          -5.1143   13.1156   -8.0393 H         1 MOL1        0.3291
@<TRIPOS>BOND
     1      2      1 1 
     2      3      2 1 
     3      4      3 1 
     4      5      4 1 
     5      6      5 1 
     6      7      2 1 
     7      7      6 1 
     8      8      5 1 
     9      9      8 1 
    10     10      9 1 
    11     11     10 1 
    12     12     11 ar
    13     13     12 ar
    14     14     13 ar
    15     15     11 ar
    16     15     14 ar
    17     16     14 1 
    18     17     16 ar
    19     18     17 ar
    20     19     18 ar
    21     20     19 ar
    22     21     16 ar
    23     21     20 ar
    24     22     20 1 
    25     23     22 1 
    26     24     23 1 
    27     25     24 1 
    28     26     25 1 
    29     27     26 1 
    30     28     27 1 
    31     29     28 1 
    32     30     25 1 
    33     30     29 1 
    34     31     19 1 
    35     32     31 1 
    36     33     31 1 
    37     34     31 1 
    38     35     13 1 
    39     36     35 1 
    40     37     36 1 
    41     38     12 1 
    42     38     37 1 
    43     39     36 1 
    44     40     39 2 
    45     41     39 2 
    46     42     39 1 
    47     43      2 1 
    48     44     28 1 
    49     45      9 1 
    50     45     92 1 
    51     46      9 1 
    52     47     28 1 
    53     48      1 1 
    54     49      1 1 
    55     50      1 1 
    56     51      3 1 
    57     52      3 1 
    58     53      4 1 
    59     54      4 1 
    60     55      6 1 
    61     56      6 1 
    62     57      7 1 
    63     58      7 1 
    64     59      8 1 
    65     60      8 1 
    66     61     10 1 
    67     62     10 1 
    68     63     17 1 
    69     64     18 1 
    70     65     21 1 
    71     66     23 1 
    72     67     23 1 
    73     68     24 1 
    74     69     24 1 
    75     70     26 1 
    76     71     26 1 
    77     72     27 1 
    78     73     27 1 
    79     74     29 1 
    80     75     29 1 
    81     76     30 1 
    82     77     30 1 
    83     78     35 1 
    84     79     35 1 
    85     80     37 1 
    86     81     37 1 
    87     82     38 1 
    88     83     38 1 
    89     84     42 1 
    90     85     42 1 
    91     86     42 1 
    92     87     43 1 
    93     88     43 1 
    94     89     43 1 
    95     90      5 1 
    96     91     25 1 
@<TRIPOS>SUBSTRUCTURE
     1 MOL1         1 MOLECULE          1 A
