# Molecule written by the XED library from Cresset
@<TRIPOS>MOLECULE
CatS_52
   109    115      1
SMALL
USER_CHARGES
@<TRIPOS>ATOM
      1  C1        -11.0921   10.2251   -9.4651 C.3       1 MOL1        0.0421
      2  S1         -9.7889    9.2890  -10.3050 S.3       1 MOL1        0.4316
      3  O1         -9.8788    7.9380   -9.8590 O.2       1 MOL1       -0.3139
      4  O2         -9.8731    9.5770  -11.6990 O.2       1 MOL1       -0.3139
      5  N1         -8.3280    9.8059   -9.8121 N.3       1 MOL1       -0.4606
      6  C2         -7.3401   10.0771  -10.8770 C.3       1 MOL1        0.0844
      7  C3         -6.1780   10.9681  -10.3820 C.3       1 MOL1       -0.0158
      8  C4         -5.6190   10.4429   -9.0739 C.ar      1 MOL1        0.0572
      9  C5         -6.2981    9.5790   -8.3160 C.ar      1 MOL1       -0.0684
     10  C6         -5.4129    9.3180   -7.2419 C.ar      1 MOL1        0.0392
     11  N2         -4.3170   10.0299   -7.4230 N.2       1 MOL1       -0.2943
     12  N3         -4.4040   10.7579   -8.5600 N.pl3     1 MOL1       -0.0691
     13  C7         -3.3270   11.5800   -9.1319 C.3       1 MOL1        0.0794
     14  C8         -3.1601   13.0000   -8.5630 C.3       1 MOL1       -0.0608
     15  C9         -2.3289   12.9559   -7.2630 C.3       1 MOL1       -0.0600
     16  N4         -2.0039   14.3211   -6.8042 N.4       1 MOL1       -0.2306
     17  C10        -1.4060   14.2911   -5.4540 C.3       1 MOL1       -0.0596
     18  C11        -1.1650   15.7310   -4.9418 C.3       1 MOL1       -0.0597
     19  C12        -0.2529   16.4961   -5.9271 C.3       1 MOL1        0.0948
     20  C13        -0.8791   16.4519   -7.3401 C.3       1 MOL1       -0.0597
     21  C14        -1.0910   14.9810   -7.7579 C.3       1 MOL1       -0.0596
     22  N5          0.1000   17.8160   -5.3729 N.am      1 MOL1       -0.3966
     23  C15         1.1919   17.9560   -4.4041 C.3       1 MOL1        0.0730
     24  C16         1.3849   19.4840   -4.4280 C.3       1 MOL1       -0.0610
     25  C17         0.0511   20.0801   -4.9131 C.3       1 MOL1       -0.0111
     26  C18        -0.5650   18.9400   -5.6760 C.2       1 MOL1        0.2838
     27  O3         -1.5129   19.0530   -6.4411 O.2       1 MOL1       -0.4204
     28  C19        -5.5660    8.3910   -6.1298 C.ar      1 MOL1       -0.0066
     29  C20        -4.5029    7.6850   -5.5970 C.ar      1 MOL1       -0.0846
     30  C21        -4.6770    6.8309   -4.5351 C.ar      1 MOL1       -0.0687
     31  C22        -5.9162    6.6600   -3.9519 C.ar      1 MOL1        0.0171
     32  C23        -6.9891    7.3692   -4.4781 C.ar      1 MOL1        0.0480
     33  C24        -6.8111    8.2170   -5.5510 C.ar      1 MOL1       -0.0655
     34  S2         -8.6420    7.2160   -3.7791 S.3       1 MOL1       -0.1783
     35  C25        -9.2190    8.8291   -3.1780 C.3       1 MOL1       -0.0087
     36  C26        -8.0430    9.5970   -2.5419 C.3       1 MOL1       -0.0441
     37  N6         -8.4389   10.8340   -1.8490 N.4       1 MOL1       -0.2286
     38  C27        -9.7959   11.2420   -2.2590 C.3       1 MOL1       -0.0624
     39  C28       -10.2441   12.5090   -1.5020 C.3       1 MOL1       -0.0787
     40  C29        -9.2580   13.6629   -1.7659 C.3       1 MOL1       -0.0547
     41  C30        -7.8301   13.1990   -1.4019 C.3       1 MOL1       -0.0787
     42  C31        -7.4810   11.9079   -2.1679 C.3       1 MOL1       -0.0624
     43  C32        -9.6669   14.9049   -0.9449 C.3       1 MOL1       -0.0465
     44  C33        -9.4380   16.2449   -1.6290 C.ar      1 MOL1       -0.0632
     45  C34        -8.2211   16.8850   -1.5311 C.ar      1 MOL1       -0.0864
     46  C35        -8.0220   18.0981   -2.1491 C.ar      1 MOL1       -0.0901
     47  C36        -9.0411   18.6779   -2.8691 C.ar      1 MOL1       -0.0906
     48  C37       -10.2581   18.0450   -2.9690 C.ar      1 MOL1       -0.0901
     49  C38       -10.4540   16.8309   -2.3511 C.ar      1 MOL1       -0.0864
     50  C39        -5.9810    5.6940   -2.7700 C.3       1 MOL1        0.4149
     51  F1         -7.1999    5.0270   -2.7401 F         1 MOL1       -0.1514
     52  F2         -5.8400    6.3199   -1.5340 F         1 MOL1       -0.1514
     53  F3         -4.9791    4.7331   -2.8461 F         1 MOL1       -0.1514
     54  C40        -7.6750    9.0549   -8.7140 C.3       1 MOL1        0.1169
     55  H1        -12.1610    9.7730   -9.7730 H         1 MOL1        0.0588
     56  H2        -10.9471   10.1320   -8.2760 H         1 MOL1        0.0588
     57  H3        -11.0390   11.3800   -9.7900 H         1 MOL1        0.0588
     58  H4         -7.8900   10.6340  -11.7890 H         1 MOL1        0.0601
     59  H5         -6.8931    9.0301  -11.2582 H         1 MOL1        0.0601
     60  H6         -6.5960   12.0770  -10.2010 H         1 MOL1        0.0516
     61  H7         -5.3260   10.9850  -11.2271 H         1 MOL1        0.0516
     62  H8         -2.2861   10.9920   -9.0189 H         1 MOL1        0.0605
     63  H9         -3.5541   11.7211  -10.3010 H         1 MOL1        0.0605
     64  H10        -4.2428   13.4541   -8.3151 H         1 MOL1        0.0480
     65  H11        -2.6129   13.6990   -9.3719 H         1 MOL1        0.0480
     66  H12        -2.9730   12.3580   -6.4450 H         1 MOL1        0.0528
     67  H13        -1.3320   12.3220   -7.4791 H         1 MOL1        0.0528
     68  H14        -2.1648   13.7650   -4.6869 H         1 MOL1        0.0528
     69  H15        -0.3740   13.6720   -5.4769 H         1 MOL1        0.0528
     70  H16        -2.2120   16.3119   -4.8271 H         1 MOL1        0.0483
     71  H17        -0.6228   15.6790   -3.8710 H         1 MOL1        0.0483
     72  H18         0.7780   15.8831   -5.9960 H         1 MOL1        0.0618
     73  H19        -0.1430   16.9870   -8.1250 H         1 MOL1        0.0483
     74  H20        -1.9501   16.9972   -7.3230 H         1 MOL1        0.0483
     75  H21        -0.0301   14.4199   -7.7650 H         1 MOL1        0.0528
     76  H22        -1.5650   14.9480   -8.8610 H         1 MOL1        0.0528
     77  H23         0.8210   17.5870   -3.3240 H         1 MOL1        0.0593
     78  H24         2.1851   17.3720   -4.7441 H         1 MOL1        0.0593
     79  H25         2.2370   19.7570   -5.2291 H         1 MOL1        0.0476
     80  H26         1.6880   19.9120   -3.3479 H         1 MOL1        0.0476
     81  H27         0.2182   21.0370   -5.6181 H         1 MOL1        0.0527
     82  H28        -0.6429   20.3581   -3.9740 H         1 MOL1        0.0527
     83  H29        -3.5900    7.7970   -5.9840 H         1 MOL1        0.0910
     84  H30        -3.8890    6.3280   -4.1810 H         1 MOL1        0.0908
     85  H31        -7.5929    8.7189   -5.9172 H         1 MOL1        0.0929
     86  H32        -9.6691    9.4721   -4.0890 H         1 MOL1        0.0553
     87  H33       -10.0701    8.6431   -2.3560 H         1 MOL1        0.0553
     88  H34        -7.2249    9.8550   -3.3810 H         1 MOL1        0.0547
     89  H35        -7.5389    8.8569   -1.7430 H         1 MOL1        0.0547
     90  H36       -10.5900   10.3800   -2.0090 H         1 MOL1        0.0528
     91  H37        -9.8180   11.4600   -3.4380 H         1 MOL1        0.0528
     92  H38       -11.3452   12.8171   -1.8731 H         1 MOL1        0.0470
     93  H39       -10.2690   12.2770   -0.3240 H         1 MOL1        0.0470
     94  H40        -9.3030   13.9340   -2.9310 H         1 MOL1        0.0490
     95  H41        -7.0480   14.0609   -1.6980 H         1 MOL1        0.0470
     96  H42        -7.7611   12.9850   -0.2209 H         1 MOL1        0.0470
     97  H43        -6.3709   11.5780   -1.8570 H         1 MOL1        0.0528
     98  H44        -7.4971   12.1281   -3.3470 H         1 MOL1        0.0528
     99  H45       -10.8391   14.8280   -0.6990 H         1 MOL1        0.0495
    100  H46        -9.0851   14.8880    0.1039 H         1 MOL1        0.0495
    101  H47        -7.4790   16.4660   -1.0090 H         1 MOL1        0.0908
    102  H48        -7.1369   18.5580   -2.0760 H         1 MOL1        0.0906
    103  H49        -8.8971   19.5610   -3.3170 H         1 MOL1        0.0906
    104  H50       -10.9999   18.4671   -3.4900 H         1 MOL1        0.0906
    105  H51       -11.3401   16.3739   -2.4249 H         1 MOL1        0.0908
    106  H52        -8.4090    9.1381   -7.7690 H         1 MOL1        0.0628
    107  H53        -7.5680    7.8991   -9.0200 H         1 MOL1        0.0628
    108  H          -2.7831   14.7933   -6.7659 H         1 MOL1        0.1913
    109  H          -8.4374   10.6927   -0.9478 H         1 MOL1        0.1920
@<TRIPOS>BOND
     1      1      2 1 
     2      2      3 2 
     3      2      4 2 
     4      2      5 1 
     5      5      6 1 
     6      5     54 1 
     7      6      7 1 
     8      7      8 1 
     9      8      9 ar
    10      8     12 ar
    11      9     10 ar
    12      9     54 1 
    13     10     11 ar
    14     10     28 1 
    15     11     12 ar
    16     12     13 1 
    17     13     14 1 
    18     14     15 1 
    19     15     16 1 
    20     16     17 1 
    21     16     21 1 
    22     17     18 1 
    23     18     19 1 
    24     19     20 1 
    25     19     22 1 
    26     20     21 1 
    27     22     23 1 
    28     22     26 am
    29     23     24 1 
    30     24     25 1 
    31     25     26 1 
    32     26     27 2 
    33     28     29 ar
    34     28     33 ar
    35     29     30 ar
    36     30     31 ar
    37     31     32 ar
    38     31     50 1 
    39     32     33 ar
    40     32     34 1 
    41     34     35 1 
    42     35     36 1 
    43     36     37 1 
    44     37     38 1 
    45     37     42 1 
    46     38     39 1 
    47     39     40 1 
    48     40     41 1 
    49     40     43 1 
    50     41     42 1 
    51     43     44 1 
    52     44     45 ar
    53     44     49 ar
    54     45     46 ar
    55     46     47 ar
    56     47     48 ar
    57     48     49 ar
    58     50     51 1 
    59     50     52 1 
    60     50     53 1 
    61      1     55 1 
    62      1     56 1 
    63      1     57 1 
    64      6     58 1 
    65      6     59 1 
    66      7     60 1 
    67      7     61 1 
    68     13     62 1 
    69     13     63 1 
    70     14     64 1 
    71     14     65 1 
    72     15     66 1 
    73     15     67 1 
    74     16    108 1 
    75     17     68 1 
    76     17     69 1 
    77     18     70 1 
    78     18     71 1 
    79     19     72 1 
    80     20     73 1 
    81     20     74 1 
    82     21     75 1 
    83     21     76 1 
    84     23     77 1 
    85     23     78 1 
    86     24     79 1 
    87     24     80 1 
    88     25     81 1 
    89     25     82 1 
    90     29     83 1 
    91     30     84 1 
    92     33     85 1 
    93     35     86 1 
    94     35     87 1 
    95     36     88 1 
    96     36     89 1 
    97     37    109 1 
    98     38     90 1 
    99     38     91 1 
   100     39     92 1 
   101     39     93 1 
   102     40     94 1 
   103     41     95 1 
   104     41     96 1 
   105     42     97 1 
   106     42     98 1 
   107     43     99 1 
   108     43    100 1 
   109     45    101 1 
   110     46    102 1 
   111     47    103 1 
   112     48    104 1 
   113     49    105 1 
   114     54    106 1 
   115     54    107 1 
@<TRIPOS>SUBSTRUCTURE
     1 MOL1         1 MOLECULE          1 A
