CatS_9
 OpenBabel05281909343D

102107  0  0  1  0  0  0  0  0999 V2000
  -10.3071   12.5449   -1.4070 C   0  0  0  0  0  0  0  0  0  0  0  0
   -9.2449   13.6599   -1.2550 C   0  0  0  0  0  0  0  0  0  0  0  0
   -7.8450   13.0980   -0.9328 C   0  0  0  0  0  0  0  0  0  0  0  0
   -7.4751   12.0090   -1.9581 C   0  0  0  0  0  0  0  0  0  0  0  0
   -8.4611   10.9119   -1.9480 N   0  3  1  0  0  0  0  0  0  0  0  0
   -9.7890   11.4261   -2.3391 C   0  0  0  0  0  0  0  0  0  0  0  0
   -8.0511    9.8408   -2.8739 C   0  0  0  0  0  0  0  0  0  0  0  0
   -9.2122    8.9670   -3.3961 C   0  0  0  0  0  0  0  0  0  0  0  0
   -8.6229    7.2971   -3.7880 S   0  0  0  0  0  0  0  0  0  0  0  0
   -6.9769    7.4448   -4.4970 C   0  0  0  0  0  0  0  0  0  0  0  0
   -6.8400    8.2791   -5.5819 C   0  0  0  0  0  0  0  0  0  0  0  0
   -5.6119    8.4731   -6.1879 C   0  0  0  0  0  0  0  0  0  0  0  0
   -4.5201    7.8040   -5.6681 C   0  0  0  0  0  0  0  0  0  0  0  0
   -4.6600    6.9640   -4.5900 C   0  0  0  0  0  0  0  0  0  0  0  0
   -5.8822    6.7650   -3.9819 C   0  0  0  0  0  0  0  0  0  0  0  0
   -5.8379    5.7829   -2.8117 C   0  0  0  0  0  0  0  0  0  0  0  0
   -6.9881    5.0240   -2.6409 F   0  0  0  0  0  0  0  0  0  0  0  0
   -5.6210    6.4402   -1.6039 F   0  0  0  0  0  0  0  0  0  0  0  0
   -4.7840    4.8928   -2.9850 F   0  0  0  0  0  0  0  0  0  0  0  0
   -5.4260    9.3329   -7.3468 C   0  0  0  0  0  0  0  0  0  0  0  0
   -6.2950    9.5778   -8.4370 C   0  0  0  0  0  0  0  0  0  0  0  0
   -5.5920   10.3950   -9.2220 C   0  0  0  0  0  0  0  0  0  0  0  0
   -4.3770   10.7051   -8.7038 N   0  0  0  0  0  0  0  0  0  0  0  0
   -4.3159   10.0140   -7.5451 N   0  0  0  0  0  0  0  0  0  0  0  0
   -3.2970   11.5461   -9.2360 C   0  0  0  0  0  0  0  0  0  0  0  0
   -3.1789   12.9311   -8.5720 C   0  0  0  0  0  0  0  0  0  0  0  0
   -2.6129   12.8552   -7.1360 C   0  0  0  0  0  0  0  0  0  0  0  0
   -2.1589   14.1780   -6.6711 N   0  3  2  0  0  0  0  0  0  0  0  0
   -1.0350   14.6469   -7.5011 C   0  0  0  0  0  0  0  0  0  0  0  0
   -0.6072   16.0691   -7.0830 C   0  0  0  0  0  0  0  0  0  0  0  0
   -0.2179   16.0932   -5.5911 C   0  0  2  0  0  0  0  0  0  0  0  0
   -1.3803   15.5269   -4.7461 C   0  0  0  0  0  0  0  0  0  0  0  0
   -1.7502   14.1179   -5.2532 C   0  0  0  0  0  0  0  0  0  0  0  0
    0.2242   17.4562   -5.2559 N   0  0  0  0  0  0  0  0  0  0  0  0
    1.5490   17.7979   -4.7209 C   0  0  0  0  0  0  0  0  0  0  0  0
    1.5281   19.3311   -4.8611 C   0  0  0  0  0  0  0  0  0  0  0  0
    0.0449   19.7371   -4.9070 C   0  0  0  0  0  0  0  0  0  0  0  0
   -0.6312   18.4779   -5.3770 C   0  0  0  0  0  0  0  0  0  0  0  0
   -1.7768   18.4169   -5.8009 O   0  0  0  0  0  0  0  0  0  0  0  0
   -6.1373   10.8819  -10.5509 C   0  0  0  0  0  0  0  0  0  0  0  0
   -7.2947    9.9759  -11.0291 C   0  0  0  0  0  0  0  0  0  0  0  0
   -8.3100    9.7580   -9.9747 N   0  0  0  0  0  0  0  0  0  0  0  0
   -7.6869    9.0849   -8.8119 C   0  0  0  0  0  0  0  0  0  0  0  0
   -9.8239    9.2750  -10.3548 S   0  0  0  0  0  0  0  0  0  0  0  0
   -9.9271    7.9159   -9.9350 O   0  0  0  0  0  0  0  0  0  0  0  0
  -10.0369    9.5232  -11.7442 O   0  0  0  0  0  0  0  0  0  0  0  0
  -11.0379   10.2519   -9.4259 C   0  0  0  0  0  0  0  0  0  0  0  0
   -7.8258   12.6340    0.1729 C   0  0  0  0  0  0  0  0  0  0  0  0
   -7.0419   13.9872   -0.9920 C   0  0  0  0  0  0  0  0  0  0  0  0
  -11.5730   13.1572   -2.0318 H   0  0  0  0  0  0  0  0  0  0  0  0
  -10.6960   11.9540   -0.0381 H   0  0  0  0  0  0  0  0  0  0  0  0
   -9.5799   14.4280   -0.3961 H   0  0  0  0  0  0  0  0  0  0  0  0
   -9.1579   14.2562   -2.2921 H   0  0  0  0  0  0  0  0  0  0  0  0
   -6.3920   11.5739   -1.6789 H   0  0  0  0  0  0  0  0  0  0  0  0
   -7.4229   12.4993   -3.0519 H   0  0  0  0  0  0  0  0  0  0  0  0
  -10.5960   10.5390   -2.3161 H   0  0  0  0  0  0  0  0  0  0  0  0
   -9.7202   11.8509   -3.4591 H   0  0  0  0  0  0  0  0  0  0  0  0
   -7.5421   10.3461   -3.8371 H   0  0  0  0  0  0  0  0  0  0  0  0
   -7.2320    9.1409   -2.3451 H   0  0  0  0  0  0  0  0  0  0  0  0
   -9.6421    9.4382   -4.4129 H   0  0  0  0  0  0  0  0  0  0  0  0
  -10.0988    8.9231   -2.5878 H   0  0  0  0  0  0  0  0  0  0  0  0
   -7.6450    8.7491   -5.9360 H   0  0  0  0  0  0  0  0  0  0  0  0
   -3.6200    7.9271   -6.0847 H   0  0  0  0  0  0  0  0  0  0  0  0
   -3.8559    6.4840   -4.2372 H   0  0  0  0  0  0  0  0  0  0  0  0
   -3.4959   11.7361  -10.4030 H   0  0  0  0  0  0  0  0  0  0  0  0
   -2.2541   10.9630   -9.1239 H   0  0  0  0  0  0  0  0  0  0  0  0
   -2.4211   13.5669   -9.2510 H   0  0  0  0  0  0  0  0  0  0  0  0
   -4.2509   13.4701   -8.5749 H   0  0  0  0  0  0  0  0  0  0  0  0
   -1.6842   12.0940   -7.1510 H   0  0  0  0  0  0  0  0  0  0  0  0
   -3.4320   12.4031   -6.3819 H   0  0  0  0  0  0  0  0  0  0  0  0
   -1.3623   14.6960   -8.6540 H   0  0  0  0  0  0  0  0  0  0  0  0
   -0.1030   13.8989   -7.3899 H   0  0  0  0  0  0  0  0  0  0  0  0
    0.3311   16.4161   -7.7459 H   0  0  0  0  0  0  0  0  0  0  0  0
   -1.5221   16.8237   -7.2631 H   0  0  0  0  0  0  0  0  0  0  0  0
    0.7220   15.3600   -5.4470 H   0  0  0  0  0  0  0  0  0  0  0  0
   -1.0512   15.4701   -3.5941 H   0  0  0  0  0  0  0  0  0  0  0  0
   -2.3411   16.2372   -4.8568 H   0  0  0  0  0  0  0  0  0  0  0  0
   -0.8000   13.3963   -5.1271 H   0  0  0  0  0  0  0  0  0  0  0  0
   -2.6439   13.6940   -4.5740 H   0  0  0  0  0  0  0  0  0  0  0  0
    1.6189   17.4800   -3.5660 H   0  0  0  0  0  0  0  0  0  0  0  0
    2.4411   17.3121   -5.3602 H   0  0  0  0  0  0  0  0  0  0  0  0
    2.0461   19.6387   -5.9000 H   0  0  0  0  0  0  0  0  0  0  0  0
    2.0970   19.8621   -3.9470 H   0  0  0  0  0  0  0  0  0  0  0  0
   -0.1411   20.6511   -5.6630 H   0  0  0  0  0  0  0  0  0  0  0  0
   -0.3428   20.0139   -3.8061 H   0  0  0  0  0  0  0  0  0  0  0  0
   -5.2758   10.8632  -11.3870 H   0  0  0  0  0  0  0  0  0  0  0  0
   -6.5429   12.0032  -10.4168 H   0  0  0  0  0  0  0  0  0  0  0  0
   -6.8570    8.9130  -11.3721 H   0  0  0  0  0  0  0  0  0  0  0  0
   -7.7959   10.5180  -11.9731 H   0  0  0  0  0  0  0  0  0  0  0  0
   -8.4338    9.2731   -7.8931 H   0  0  0  0  0  0  0  0  0  0  0  0
   -7.6232    7.9082   -9.0371 H   0  0  0  0  0  0  0  0  0  0  0  0
  -11.0040    9.9720   -8.2601 H   0  0  0  0  0  0  0  0  0  0  0  0
  -10.8131   11.4221   -9.5751 H   0  0  0  0  0  0  0  0  0  0  0  0
  -12.1349   10.0060   -9.8449 H   0  0  0  0  0  0  0  0  0  0  0  0
   -8.5156   10.5607   -1.1104 H   0  0  0  0  0  0  0  0  0  0  0  0
   -2.8547   14.7613   -6.7484 H   0  0  0  0  0  0  0  0  0  0  0  0
   -6.8062   12.0599    0.4554 H   0  0  0  0  0  0  0  0  0  0  0  0
   -7.9896   13.4450    1.0478 H   0  0  0  0  0  0  0  0  0  0  0  0
   -8.6805   11.8369    0.4165 H   0  0  0  0  0  0  0  0  0  0  0  0
   -5.9143   13.6675   -0.7165 H   0  0  0  0  0  0  0  0  0  0  0  0
   -6.9512   14.4418   -2.1009 H   0  0  0  0  0  0  0  0  0  0  0  0
   -7.3020   14.9457   -0.3116 H   0  0  0  0  0  0  0  0  0  0  0  0
  1 50  1  0  0  0  0
  2  1  1  0  0  0  0
  3  2  1  0  0  0  0
  4  3  1  0  0  0  0
  5  4  1  0  0  0  0
  5 95  1  1  0  0  0
  6  1  1  0  0  0  0
  6  5  1  0  0  0  0
  7  5  1  0  0  0  0
  8  7  1  0  0  0  0
  9  8  1  0  0  0  0
 10  9  1  0  0  0  0
 11 10  2  0  0  0  0
 12 11  1  0  0  0  0
 13 12  2  0  0  0  0
 14 13  1  0  0  0  0
 15 10  1  0  0  0  0
 15 14  2  0  0  0  0
 16 15  1  0  0  0  0
 17 16  1  0  0  0  0
 18 16  1  0  0  0  0
 19 16  1  0  0  0  0
 20 12  1  0  0  0  0
 21 20  1  0  0  0  0
 22 21  2  0  0  0  0
 23 22  1  0  0  0  0
 24 20  2  0  0  0  0
 24 23  1  0  0  0  0
 25 23  1  0  0  0  0
 26 25  1  0  0  0  0
 27 26  1  0  0  0  0
 28 27  1  0  0  0  0
 28 96  1  6  0  0  0
 29 28  1  0  0  0  0
 30 29  1  0  0  0  0
 31 30  1  0  0  0  0
 31 75  1  1  0  0  0
 32 31  1  0  0  0  0
 33 28  1  0  0  0  0
 33 32  1  0  0  0  0
 34 31  1  0  0  0  0
 35 34  1  0  0  0  0
 36 35  1  0  0  0  0
 37 36  1  0  0  0  0
 38 34  1  0  0  0  0
 38 37  1  0  0  0  0
 39 38  2  0  0  0  0
 40 22  1  0  0  0  0
 41 40  1  0  0  0  0
 42 41  1  0  0  0  0
 43 21  1  0  0  0  0
 43 42  1  0  0  0  0
 44 42  1  0  0  0  0
 45 44  2  0  0  0  0
 46 44  2  0  0  0  0
 47 44  1  0  0  0  0
 48  3  1  0  0  0  0
 48 97  1  0  0  0  0
 48 98  1  0  0  0  0
 48 99  1  0  0  0  0
 49  3  1  0  0  0  0
 49100  1  0  0  0  0
 49101  1  0  0  0  0
 49102  1  0  0  0  0
 51  1  1  0  0  0  0
 52  2  1  0  0  0  0
 53  2  1  0  0  0  0
 54  4  1  0  0  0  0
 55  4  1  0  0  0  0
 56  6  1  0  0  0  0
 57  6  1  0  0  0  0
 58  7  1  0  0  0  0
 59  7  1  0  0  0  0
 60  8  1  0  0  0  0
 61  8  1  0  0  0  0
 62 11  1  0  0  0  0
 63 13  1  0  0  0  0
 64 14  1  0  0  0  0
 65 25  1  0  0  0  0
 66 25  1  0  0  0  0
 67 26  1  0  0  0  0
 68 26  1  0  0  0  0
 69 27  1  0  0  0  0
 70 27  1  0  0  0  0
 71 29  1  0  0  0  0
 72 29  1  0  0  0  0
 73 30  1  0  0  0  0
 74 30  1  0  0  0  0
 76 32  1  0  0  0  0
 77 32  1  0  0  0  0
 78 33  1  0  0  0  0
 79 33  1  0  0  0  0
 80 35  1  0  0  0  0
 81 35  1  0  0  0  0
 82 36  1  0  0  0  0
 83 36  1  0  0  0  0
 84 37  1  0  0  0  0
 85 37  1  0  0  0  0
 86 40  1  0  0  0  0
 87 40  1  0  0  0  0
 88 41  1  0  0  0  0
 89 41  1  0  0  0  0
 90 43  1  0  0  0  0
 91 43  1  0  0  0  0
 92 47  1  0  0  0  0
 93 47  1  0  0  0  0
 94 47  1  0  0  0  0
M  CHG  2   5   1  28   1
M  END
$$$$
