CatS_177
 OpenBabel05281909343D

 92 96  0  0  1  0  0  0  0  0999 V2000
    0.2859   17.5008   -5.3041 C   0  0  0  0  0  0  0  0  0  0  0  0
   -0.1250   16.1701   -5.7827 C   0  0  0  0  0  0  0  0  0  0  0  0
   -1.1912   15.5858   -4.8378 C   0  0  0  0  0  0  0  0  0  0  0  0
   -1.6668   14.2214   -5.3739 C   0  0  0  0  0  0  0  0  0  0  0  0
   -2.2336   14.3439   -6.7310 N   0  3  0  0  0  0  0  0  0  0  0  0
   -1.2231   14.8910   -7.6590 C   0  0  0  0  0  0  0  0  0  0  0  0
   -0.7221   16.2748   -7.1990 C   0  0  0  0  0  0  0  0  0  0  0  0
   -2.7051   13.0260   -7.1972 C   0  0  0  0  0  0  0  0  0  0  0  0
   -3.4130   13.0568   -8.5709 C   0  0  1  0  0  0  0  0  0  0  0  0
   -3.3394   11.6551   -9.2000 C   0  0  0  0  0  0  0  0  0  0  0  0
   -4.3392   10.6960   -8.7087 N   0  0  0  0  0  0  0  0  0  0  0  0
   -5.5310   10.3252   -9.2410 C   0  0  0  0  0  0  0  0  0  0  0  0
   -6.2051    9.4820   -8.4579 C   0  0  0  0  0  0  0  0  0  0  0  0
   -5.3399    9.2804   -7.3580 C   0  0  0  0  0  0  0  0  0  0  0  0
   -4.2646   10.0228   -7.5357 N   0  0  0  0  0  0  0  0  0  0  0  0
   -5.5280    8.4129   -6.2061 C   0  0  0  0  0  0  0  0  0  0  0  0
   -4.4677    7.7388   -5.6281 C   0  0  0  0  0  0  0  0  0  0  0  0
   -4.6602    6.9418   -4.5283 C   0  0  0  0  0  0  0  0  0  0  0  0
   -5.9104    6.7700   -3.9697 C   0  0  0  0  0  0  0  0  0  0  0  0
   -6.9757    7.4401   -4.5580 C   0  0  0  0  0  0  0  0  0  0  0  0
   -6.7840    8.2535   -5.6507 C   0  0  0  0  0  0  0  0  0  0  0  0
   -8.6624    7.2887   -3.9528 S   0  0  0  0  0  0  0  0  0  0  0  0
   -9.2127    8.9475   -3.4728 C   0  0  0  0  0  0  0  0  0  0  0  0
   -8.0195    9.8150   -3.0206 C   0  0  0  0  0  0  0  0  0  0  0  0
   -8.4072   10.8678   -2.0651 N   0  3  0  0  0  0  0  0  0  0  0  0
   -9.7689   11.3444   -2.3739 C   0  0  0  0  0  0  0  0  0  0  0  0
  -10.2314   12.4114   -1.3619 C   0  0  0  0  0  0  0  0  0  0  0  0
   -9.2441   13.5921   -1.3597 C   0  0  0  0  0  0  0  0  0  0  0  0
   -7.8200   13.0742   -1.0857 C   0  0  0  0  0  0  0  0  0  0  0  0
   -7.4532   11.9952   -2.1228 C   0  0  0  0  0  0  0  0  0  0  0  0
   -5.9448    5.8567   -2.7425 C   0  0  0  0  0  0  0  0  0  0  0  0
   -4.9474    4.8881   -2.7813 F   0  0  0  0  0  0  0  0  0  0  0  0
   -7.1418    5.1655   -2.5932 F   0  0  0  0  0  0  0  0  0  0  0  0
   -5.7379    6.5909   -1.5778 F   0  0  0  0  0  0  0  0  0  0  0  0
   -7.5839    8.9488   -8.8239 C   0  0  0  0  0  0  0  0  0  0  0  0
   -8.2562    9.7457   -9.8749 N   0  0  0  0  0  0  0  0  0  0  0  0
   -7.3183    9.9450  -11.0007 C   0  0  0  0  0  0  0  0  0  0  0  0
   -6.0940   10.7928  -10.5730 C   0  0  0  0  0  0  0  0  0  0  0  0
   -9.7908    9.3103  -10.1697 S   0  0  0  0  0  0  0  0  0  0  0  0
   -9.8658    7.9422   -9.7662 O   0  0  0  0  0  0  0  0  0  0  0  0
  -10.0688    9.5800  -11.5450 O   0  0  0  0  0  0  0  0  0  0  0  0
  -10.9189   10.2892   -9.1311 C   0  0  0  0  0  0  0  0  0  0  0  0
   -9.5606   14.3841   -0.5170 F   0  0  0  0  0  0  0  0  0  0  0  0
   -9.2639   14.1291   -2.4332 F   0  0  0  0  0  0  0  0  0  0  0  0
   -4.5660   13.3630   -8.4240 O   0  0  0  0  0  0  0  0  0  0  0  0
    0.8139   15.4249   -5.8330 C   0  0  0  0  0  0  0  0  0  0  0  0
    1.3871   17.6881   -4.5414 H   0  0  0  0  0  0  0  0  0  0  0  0
    0.4901   18.1903   -6.2668 H   0  0  0  0  0  0  0  0  0  0  0  0
   -0.6189   18.0802   -4.7689 H   0  0  0  0  0  0  0  0  0  0  0  0
   -2.8848   13.8321   -9.3200 H   0  0  0  0  0  0  0  0  0  0  0  0
   -0.7250   15.4542   -3.7393 H   0  0  0  0  0  0  0  0  0  0  0  0
   -2.1308   16.3301   -4.7861 H   0  0  0  0  0  0  0  0  0  0  0  0
   -2.5057   13.8241   -4.6131 H   0  0  0  0  0  0  0  0  0  0  0  0
   -0.7427   13.4540   -5.3883 H   0  0  0  0  0  0  0  0  0  0  0  0
   -1.7001   15.0318   -8.7497 H   0  0  0  0  0  0  0  0  0  0  0  0
   -0.2800   14.1497   -7.7230 H   0  0  0  0  0  0  0  0  0  0  0  0
    0.1170   16.6709   -7.9592 H   0  0  0  0  0  0  0  0  0  0  0  0
   -1.6447   17.0422   -7.1909 H   0  0  0  0  0  0  0  0  0  0  0  0
   -3.5302   12.6209   -6.4258 H   0  0  0  0  0  0  0  0  0  0  0  0
   -1.8130   12.2240   -7.2246 H   0  0  0  0  0  0  0  0  0  0  0  0
   -3.4750   11.7687  -10.3869 H   0  0  0  0  0  0  0  0  0  0  0  0
   -2.2550   11.1928   -8.9840 H   0  0  0  0  0  0  0  0  0  0  0  0
   -3.5488    7.8381   -6.0089 H   0  0  0  0  0  0  0  0  0  0  0  0
   -3.8720    6.4759   -4.1254 H   0  0  0  0  0  0  0  0  0  0  0  0
   -7.5648    8.7321   -6.0515 H   0  0  0  0  0  0  0  0  0  0  0  0
   -9.7313    9.4497   -4.4319 H   0  0  0  0  0  0  0  0  0  0  0  0
  -10.0245    8.8692   -2.5915 H   0  0  0  0  0  0  0  0  0  0  0  0
   -7.5945   10.3440   -4.0121 H   0  0  0  0  0  0  0  0  0  0  0  0
   -7.1414    9.1331   -2.5671 H   0  0  0  0  0  0  0  0  0  0  0  0
  -10.5489   10.4348   -2.3163 H   0  0  0  0  0  0  0  0  0  0  0  0
   -9.7886   11.8012   -3.4837 H   0  0  0  0  0  0  0  0  0  0  0  0
  -10.2650   11.9167   -0.2701 H   0  0  0  0  0  0  0  0  0  0  0  0
  -11.3256   12.8012   -1.6600 H   0  0  0  0  0  0  0  0  0  0  0  0
   -7.0420   13.9839   -1.1570 H   0  0  0  0  0  0  0  0  0  0  0  0
   -7.7746   12.5991    0.0153 H   0  0  0  0  0  0  0  0  0  0  0  0
   -7.4589   12.4816   -3.2209 H   0  0  0  0  0  0  0  0  0  0  0  0
   -6.3403   11.6215   -1.8747 H   0  0  0  0  0  0  0  0  0  0  0  0
   -7.4860    7.8079   -9.1821 H   0  0  0  0  0  0  0  0  0  0  0  0
   -8.2802    8.9950   -7.8457 H   0  0  0  0  0  0  0  0  0  0  0  0
   -6.9430    8.8781  -11.4009 H   0  0  0  0  0  0  0  0  0  0  0  0
   -7.8699   10.5231  -11.8949 H   0  0  0  0  0  0  0  0  0  0  0  0
   -6.4275   11.9410  -10.4690 H   0  0  0  0  0  0  0  0  0  0  0  0
   -5.2559   10.6981  -11.4261 H   0  0  0  0  0  0  0  0  0  0  0  0
  -11.0144   11.4131   -9.5422 H   0  0  0  0  0  0  0  0  0  0  0  0
  -12.0135    9.7992   -9.1411 H   0  0  0  0  0  0  0  0  0  0  0  0
  -10.5203   10.3164   -7.9993 H   0  0  0  0  0  0  0  0  0  0  0  0
   -2.9462   14.9137   -6.7057 H   0  0  0  0  0  0  0  0  0  0  0  0
   -8.4052   10.5167   -1.2234 H   0  0  0  0  0  0  0  0  0  0  0  0
   -5.0642   13.3432   -9.2977 H   0  0  0  0  0  0  0  0  0  0  0  0
    1.8350   16.0564   -5.8008 H   0  0  0  0  0  0  0  0  0  0  0  0
    1.1432   14.8261   -6.8105 H   0  0  0  0  0  0  0  0  0  0  0  0
    0.9565   14.7038   -4.8833 H   0  0  0  0  0  0  0  0  0  0  0  0
  1 47  1  0  0  0  0
  1 48  1  0  0  0  0
  1 49  1  0  0  0  0
  2  1  1  0  0  0  0
  3  2  1  0  0  0  0
  4  3  1  0  0  0  0
  5  4  1  0  0  0  0
  5 87  1  0  0  0  0
  6  5  1  0  0  0  0
  7  2  1  0  0  0  0
  7  6  1  0  0  0  0
  8  5  1  0  0  0  0
  9  8  1  0  0  0  0
  9 50  1  6  0  0  0
 10  9  1  0  0  0  0
 11 10  1  0  0  0  0
 12 11  1  0  0  0  0
 13 12  2  0  0  0  0
 14 13  1  0  0  0  0
 15 11  1  0  0  0  0
 15 14  2  0  0  0  0
 16 14  1  0  0  0  0
 17 16  2  0  0  0  0
 18 17  1  0  0  0  0
 19 18  2  0  0  0  0
 20 19  1  0  0  0  0
 21 16  1  0  0  0  0
 21 20  2  0  0  0  0
 22 20  1  0  0  0  0
 23 22  1  0  0  0  0
 24 23  1  0  0  0  0
 25 24  1  0  0  0  0
 25 88  1  0  0  0  0
 26 25  1  0  0  0  0
 27 26  1  0  0  0  0
 28 27  1  0  0  0  0
 29 28  1  0  0  0  0
 30 25  1  0  0  0  0
 30 29  1  0  0  0  0
 31 19  1  0  0  0  0
 32 31  1  0  0  0  0
 33 31  1  0  0  0  0
 34 31  1  0  0  0  0
 35 13  1  0  0  0  0
 36 35  1  0  0  0  0
 37 36  1  0  0  0  0
 38 12  1  0  0  0  0
 38 37  1  0  0  0  0
 39 36  1  0  0  0  0
 40 39  2  0  0  0  0
 41 39  2  0  0  0  0
 42 39  1  0  0  0  0
 43 28  1  0  0  0  0
 44 28  1  0  0  0  0
 45  9  1  0  0  0  0
 46  2  1  0  0  0  0
 46 90  1  0  0  0  0
 46 91  1  0  0  0  0
 46 92  1  0  0  0  0
 51  3  1  0  0  0  0
 52  3  1  0  0  0  0
 53  4  1  0  0  0  0
 54  4  1  0  0  0  0
 55  6  1  0  0  0  0
 56  6  1  0  0  0  0
 57  7  1  0  0  0  0
 58  7  1  0  0  0  0
 59  8  1  0  0  0  0
 60  8  1  0  0  0  0
 61 10  1  0  0  0  0
 62 10  1  0  0  0  0
 63 17  1  0  0  0  0
 64 18  1  0  0  0  0
 65 21  1  0  0  0  0
 66 23  1  0  0  0  0
 67 23  1  0  0  0  0
 68 24  1  0  0  0  0
 69 24  1  0  0  0  0
 70 26  1  0  0  0  0
 71 26  1  0  0  0  0
 72 27  1  0  0  0  0
 73 27  1  0  0  0  0
 74 29  1  0  0  0  0
 75 29  1  0  0  0  0
 76 30  1  0  0  0  0
 77 30  1  0  0  0  0
 78 35  1  0  0  0  0
 79 35  1  0  0  0  0
 80 37  1  0  0  0  0
 81 37  1  0  0  0  0
 82 38  1  0  0  0  0
 83 38  1  0  0  0  0
 84 42  1  0  0  0  0
 85 42  1  0  0  0  0
 86 42  1  0  0  0  0
 89 45  1  0  0  0  0
M  CHG  2   5   1  25   1
M  END
$$$$
