CatS_52
 OpenBabel05281909343D

109115  0  0  1  0  0  0  0  0999 V2000
  -11.0921   10.2251   -9.4651 C   0  0  0  0  0  0  0  0  0  0  0  0
   -9.7889    9.2890  -10.3050 S   0  0  0  0  0  0  0  0  0  0  0  0
   -9.8788    7.9380   -9.8590 O   0  0  0  0  0  0  0  0  0  0  0  0
   -9.8731    9.5770  -11.6990 O   0  0  0  0  0  0  0  0  0  0  0  0
   -8.3280    9.8059   -9.8121 N   0  0  0  0  0  0  0  0  0  0  0  0
   -7.3401   10.0771  -10.8770 C   0  0  0  0  0  0  0  0  0  0  0  0
   -6.1780   10.9681  -10.3820 C   0  0  0  0  0  0  0  0  0  0  0  0
   -5.6190   10.4429   -9.0739 C   0  0  0  0  0  0  0  0  0  0  0  0
   -6.2981    9.5790   -8.3160 C   0  0  0  0  0  0  0  0  0  0  0  0
   -5.4129    9.3180   -7.2419 C   0  0  0  0  0  0  0  0  0  0  0  0
   -4.3170   10.0299   -7.4230 N   0  0  0  0  0  0  0  0  0  0  0  0
   -4.4040   10.7579   -8.5600 N   0  0  0  0  0  0  0  0  0  0  0  0
   -3.3270   11.5800   -9.1319 C   0  0  0  0  0  0  0  0  0  0  0  0
   -3.1601   13.0000   -8.5630 C   0  0  0  0  0  0  0  0  0  0  0  0
   -2.3289   12.9559   -7.2630 C   0  0  0  0  0  0  0  0  0  0  0  0
   -2.0039   14.3211   -6.8042 N   0  3  1  0  0  0  0  0  0  0  0  0
   -1.4060   14.2911   -5.4540 C   0  0  0  0  0  0  0  0  0  0  0  0
   -1.1650   15.7310   -4.9418 C   0  0  0  0  0  0  0  0  0  0  0  0
   -0.2529   16.4961   -5.9271 C   0  0  1  0  0  0  0  0  0  0  0  0
   -0.8791   16.4519   -7.3401 C   0  0  0  0  0  0  0  0  0  0  0  0
   -1.0910   14.9810   -7.7579 C   0  0  0  0  0  0  0  0  0  0  0  0
    0.1000   17.8160   -5.3729 N   0  0  0  0  0  0  0  0  0  0  0  0
    1.1919   17.9560   -4.4041 C   0  0  0  0  0  0  0  0  0  0  0  0
    1.3849   19.4840   -4.4280 C   0  0  0  0  0  0  0  0  0  0  0  0
    0.0511   20.0801   -4.9131 C   0  0  0  0  0  0  0  0  0  0  0  0
   -0.5650   18.9400   -5.6760 C   0  0  0  0  0  0  0  0  0  0  0  0
   -1.5129   19.0530   -6.4411 O   0  0  0  0  0  0  0  0  0  0  0  0
   -5.5660    8.3910   -6.1298 C   0  0  0  0  0  0  0  0  0  0  0  0
   -4.5029    7.6850   -5.5970 C   0  0  0  0  0  0  0  0  0  0  0  0
   -4.6770    6.8309   -4.5351 C   0  0  0  0  0  0  0  0  0  0  0  0
   -5.9162    6.6600   -3.9519 C   0  0  0  0  0  0  0  0  0  0  0  0
   -6.9891    7.3692   -4.4781 C   0  0  0  0  0  0  0  0  0  0  0  0
   -6.8111    8.2170   -5.5510 C   0  0  0  0  0  0  0  0  0  0  0  0
   -8.6420    7.2160   -3.7791 S   0  0  0  0  0  0  0  0  0  0  0  0
   -9.2190    8.8291   -3.1780 C   0  0  0  0  0  0  0  0  0  0  0  0
   -8.0430    9.5970   -2.5419 C   0  0  0  0  0  0  0  0  0  0  0  0
   -8.4389   10.8340   -1.8490 N   0  3  2  0  0  0  0  0  0  0  0  0
   -9.7959   11.2420   -2.2590 C   0  0  0  0  0  0  0  0  0  0  0  0
  -10.2441   12.5090   -1.5020 C   0  0  0  0  0  0  0  0  0  0  0  0
   -9.2580   13.6629   -1.7659 C   0  0  2  0  0  0  0  0  0  0  0  0
   -7.8301   13.1990   -1.4019 C   0  0  0  0  0  0  0  0  0  0  0  0
   -7.4810   11.9079   -2.1679 C   0  0  0  0  0  0  0  0  0  0  0  0
   -9.6669   14.9049   -0.9449 C   0  0  0  0  0  0  0  0  0  0  0  0
   -9.4380   16.2449   -1.6290 C   0  0  0  0  0  0  0  0  0  0  0  0
   -8.2211   16.8850   -1.5311 C   0  0  0  0  0  0  0  0  0  0  0  0
   -8.0220   18.0981   -2.1491 C   0  0  0  0  0  0  0  0  0  0  0  0
   -9.0411   18.6779   -2.8691 C   0  0  0  0  0  0  0  0  0  0  0  0
  -10.2581   18.0450   -2.9690 C   0  0  0  0  0  0  0  0  0  0  0  0
  -10.4540   16.8309   -2.3511 C   0  0  0  0  0  0  0  0  0  0  0  0
   -5.9810    5.6940   -2.7700 C   0  0  0  0  0  0  0  0  0  0  0  0
   -7.1999    5.0270   -2.7401 F   0  0  0  0  0  0  0  0  0  0  0  0
   -5.8400    6.3199   -1.5340 F   0  0  0  0  0  0  0  0  0  0  0  0
   -4.9791    4.7331   -2.8461 F   0  0  0  0  0  0  0  0  0  0  0  0
   -7.6750    9.0549   -8.7140 C   0  0  0  0  0  0  0  0  0  0  0  0
  -12.1610    9.7730   -9.7730 H   0  0  0  0  0  0  0  0  0  0  0  0
  -10.9471   10.1320   -8.2760 H   0  0  0  0  0  0  0  0  0  0  0  0
  -11.0390   11.3800   -9.7900 H   0  0  0  0  0  0  0  0  0  0  0  0
   -7.8900   10.6340  -11.7890 H   0  0  0  0  0  0  0  0  0  0  0  0
   -6.8931    9.0301  -11.2582 H   0  0  0  0  0  0  0  0  0  0  0  0
   -6.5960   12.0770  -10.2010 H   0  0  0  0  0  0  0  0  0  0  0  0
   -5.3260   10.9850  -11.2271 H   0  0  0  0  0  0  0  0  0  0  0  0
   -2.2861   10.9920   -9.0189 H   0  0  0  0  0  0  0  0  0  0  0  0
   -3.5541   11.7211  -10.3010 H   0  0  0  0  0  0  0  0  0  0  0  0
   -4.2428   13.4541   -8.3151 H   0  0  0  0  0  0  0  0  0  0  0  0
   -2.6129   13.6990   -9.3719 H   0  0  0  0  0  0  0  0  0  0  0  0
   -2.9730   12.3580   -6.4450 H   0  0  0  0  0  0  0  0  0  0  0  0
   -1.3320   12.3220   -7.4791 H   0  0  0  0  0  0  0  0  0  0  0  0
   -2.1648   13.7650   -4.6869 H   0  0  0  0  0  0  0  0  0  0  0  0
   -0.3740   13.6720   -5.4769 H   0  0  0  0  0  0  0  0  0  0  0  0
   -2.2120   16.3119   -4.8271 H   0  0  0  0  0  0  0  0  0  0  0  0
   -0.6228   15.6790   -3.8710 H   0  0  0  0  0  0  0  0  0  0  0  0
    0.7780   15.8831   -5.9960 H   0  0  0  0  0  0  0  0  0  0  0  0
   -0.1430   16.9870   -8.1250 H   0  0  0  0  0  0  0  0  0  0  0  0
   -1.9501   16.9972   -7.3230 H   0  0  0  0  0  0  0  0  0  0  0  0
   -0.0301   14.4199   -7.7650 H   0  0  0  0  0  0  0  0  0  0  0  0
   -1.5650   14.9480   -8.8610 H   0  0  0  0  0  0  0  0  0  0  0  0
    0.8210   17.5870   -3.3240 H   0  0  0  0  0  0  0  0  0  0  0  0
    2.1851   17.3720   -4.7441 H   0  0  0  0  0  0  0  0  0  0  0  0
    2.2370   19.7570   -5.2291 H   0  0  0  0  0  0  0  0  0  0  0  0
    1.6880   19.9120   -3.3479 H   0  0  0  0  0  0  0  0  0  0  0  0
    0.2182   21.0370   -5.6181 H   0  0  0  0  0  0  0  0  0  0  0  0
   -0.6429   20.3581   -3.9740 H   0  0  0  0  0  0  0  0  0  0  0  0
   -3.5900    7.7970   -5.9840 H   0  0  0  0  0  0  0  0  0  0  0  0
   -3.8890    6.3280   -4.1810 H   0  0  0  0  0  0  0  0  0  0  0  0
   -7.5929    8.7189   -5.9172 H   0  0  0  0  0  0  0  0  0  0  0  0
   -9.6691    9.4721   -4.0890 H   0  0  0  0  0  0  0  0  0  0  0  0
  -10.0701    8.6431   -2.3560 H   0  0  0  0  0  0  0  0  0  0  0  0
   -7.2249    9.8550   -3.3810 H   0  0  0  0  0  0  0  0  0  0  0  0
   -7.5389    8.8569   -1.7430 H   0  0  0  0  0  0  0  0  0  0  0  0
  -10.5900   10.3800   -2.0090 H   0  0  0  0  0  0  0  0  0  0  0  0
   -9.8180   11.4600   -3.4380 H   0  0  0  0  0  0  0  0  0  0  0  0
  -11.3452   12.8171   -1.8731 H   0  0  0  0  0  0  0  0  0  0  0  0
  -10.2690   12.2770   -0.3240 H   0  0  0  0  0  0  0  0  0  0  0  0
   -9.3030   13.9340   -2.9310 H   0  0  0  0  0  0  0  0  0  0  0  0
   -7.0480   14.0609   -1.6980 H   0  0  0  0  0  0  0  0  0  0  0  0
   -7.7611   12.9850   -0.2209 H   0  0  0  0  0  0  0  0  0  0  0  0
   -6.3709   11.5780   -1.8570 H   0  0  0  0  0  0  0  0  0  0  0  0
   -7.4971   12.1281   -3.3470 H   0  0  0  0  0  0  0  0  0  0  0  0
  -10.8391   14.8280   -0.6990 H   0  0  0  0  0  0  0  0  0  0  0  0
   -9.0851   14.8880    0.1039 H   0  0  0  0  0  0  0  0  0  0  0  0
   -7.4790   16.4660   -1.0090 H   0  0  0  0  0  0  0  0  0  0  0  0
   -7.1369   18.5580   -2.0760 H   0  0  0  0  0  0  0  0  0  0  0  0
   -8.8971   19.5610   -3.3170 H   0  0  0  0  0  0  0  0  0  0  0  0
  -10.9999   18.4671   -3.4900 H   0  0  0  0  0  0  0  0  0  0  0  0
  -11.3401   16.3739   -2.4249 H   0  0  0  0  0  0  0  0  0  0  0  0
   -8.4090    9.1381   -7.7690 H   0  0  0  0  0  0  0  0  0  0  0  0
   -7.5680    7.8991   -9.0200 H   0  0  0  0  0  0  0  0  0  0  0  0
   -2.7831   14.7933   -6.7659 H   0  0  0  0  0  0  0  0  0  0  0  0
   -8.4374   10.6927   -0.9478 H   0  0  0  0  0  0  0  0  0  0  0  0
  1  2  1  0  0  0  0
  1 55  1  0  0  0  0
  1 56  1  0  0  0  0
  1 57  1  0  0  0  0
  2  3  2  0  0  0  0
  2  4  2  0  0  0  0
  2  5  1  0  0  0  0
  5  6  1  0  0  0  0
  5 54  1  0  0  0  0
  6  7  1  0  0  0  0
  6 58  1  0  0  0  0
  6 59  1  0  0  0  0
  7  8  1  0  0  0  0
  7 60  1  0  0  0  0
  7 61  1  0  0  0  0
  8  9  2  0  0  0  0
  8 12  1  0  0  0  0
  9 10  1  0  0  0  0
  9 54  1  0  0  0  0
 10 11  2  0  0  0  0
 10 28  1  0  0  0  0
 11 12  1  0  0  0  0
 12 13  1  0  0  0  0
 13 14  1  0  0  0  0
 13 62  1  0  0  0  0
 13 63  1  0  0  0  0
 14 15  1  0  0  0  0
 14 64  1  0  0  0  0
 14 65  1  0  0  0  0
 15 16  1  0  0  0  0
 15 66  1  0  0  0  0
 15 67  1  0  0  0  0
 16 17  1  0  0  0  0
 16 21  1  0  0  0  0
 16108  1  1  0  0  0
 17 18  1  0  0  0  0
 17 68  1  0  0  0  0
 17 69  1  0  0  0  0
 18 19  1  0  0  0  0
 18 70  1  0  0  0  0
 18 71  1  0  0  0  0
 19 20  1  0  0  0  0
 19 22  1  0  0  0  0
 19 72  1  6  0  0  0
 20 21  1  0  0  0  0
 20 73  1  0  0  0  0
 20 74  1  0  0  0  0
 21 75  1  0  0  0  0
 21 76  1  0  0  0  0
 22 23  1  0  0  0  0
 22 26  1  0  0  0  0
 23 24  1  0  0  0  0
 23 77  1  0  0  0  0
 23 78  1  0  0  0  0
 24 25  1  0  0  0  0
 24 79  1  0  0  0  0
 24 80  1  0  0  0  0
 25 26  1  0  0  0  0
 25 81  1  0  0  0  0
 25 82  1  0  0  0  0
 26 27  2  0  0  0  0
 28 29  2  0  0  0  0
 28 33  1  0  0  0  0
 29 30  1  0  0  0  0
 29 83  1  0  0  0  0
 30 31  2  0  0  0  0
 30 84  1  0  0  0  0
 31 32  1  0  0  0  0
 31 50  1  0  0  0  0
 32 33  2  0  0  0  0
 32 34  1  0  0  0  0
 33 85  1  0  0  0  0
 34 35  1  0  0  0  0
 35 36  1  0  0  0  0
 35 86  1  0  0  0  0
 35 87  1  0  0  0  0
 36 37  1  0  0  0  0
 36 88  1  0  0  0  0
 36 89  1  0  0  0  0
 37 38  1  0  0  0  0
 37 42  1  0  0  0  0
 37109  1  1  0  0  0
 38 39  1  0  0  0  0
 38 90  1  0  0  0  0
 38 91  1  0  0  0  0
 39 40  1  0  0  0  0
 39 92  1  0  0  0  0
 39 93  1  0  0  0  0
 40 41  1  0  0  0  0
 40 43  1  0  0  0  0
 40 94  1  6  0  0  0
 41 42  1  0  0  0  0
 41 95  1  0  0  0  0
 41 96  1  0  0  0  0
 42 97  1  0  0  0  0
 42 98  1  0  0  0  0
 43 44  1  0  0  0  0
 43 99  1  0  0  0  0
 43100  1  0  0  0  0
 44 45  2  0  0  0  0
 44 49  1  0  0  0  0
 45 46  1  0  0  0  0
 45101  1  0  0  0  0
 46 47  2  0  0  0  0
 46102  1  0  0  0  0
 47 48  1  0  0  0  0
 47103  1  0  0  0  0
 48 49  2  0  0  0  0
 48104  1  0  0  0  0
 49105  1  0  0  0  0
 50 51  1  0  0  0  0
 50 52  1  0  0  0  0
 50 53  1  0  0  0  0
 54106  1  0  0  0  0
 54107  1  0  0  0  0
M  CHG  2  16   1  37   1
M  END
$$$$
