CatS_178
 OpenBabel05281909343D

 94 98  0  0  1  0  0  0  0  0999 V2000
    3.4301   16.9049   -3.5878 O   0  0  0  0  0  0  0  0  0  0  0  0
    2.2310   16.6399   -4.3386 C   0  0  0  0  0  0  0  0  0  0  0  0
    1.3870   17.6879   -4.5418 C   0  0  0  0  0  0  0  0  0  0  0  0
    1.6509   18.7711   -4.0261 O   0  0  0  0  0  0  0  0  0  0  0  0
    0.2859   17.5009   -5.3040 N   0  0  0  0  0  0  0  0  0  0  0  0
   -0.1252   16.1701   -5.7828 C   0  0  1  0  0  0  0  0  0  0  0  0
   -1.1912   15.5860   -4.8381 C   0  0  0  0  0  0  0  0  0  0  0  0
   -1.6667   14.2210   -5.3740 C   0  0  0  0  0  0  0  0  0  0  0  0
   -2.2340   14.3441   -6.7310 N   0  3  1  0  0  0  0  0  0  0  0  0
   -1.2229   14.8909   -7.6588 C   0  0  0  0  0  0  0  0  0  0  0  0
   -0.7218   16.2750   -7.1990 C   0  0  0  0  0  0  0  0  0  0  0  0
   -2.7050   13.0261   -7.1966 C   0  0  0  0  0  0  0  0  0  0  0  0
   -3.4130   13.0569   -8.5710 C   0  0  1  0  0  0  0  0  0  0  0  0
   -3.3400   11.6550   -9.2000 C   0  0  0  0  0  0  0  0  0  0  0  0
   -4.3391   10.6960   -8.7089 N   0  0  0  0  0  0  0  0  0  0  0  0
   -5.5312   10.3251   -9.2409 C   0  0  0  0  0  0  0  0  0  0  0  0
   -6.2051    9.4822   -8.4579 C   0  0  0  0  0  0  0  0  0  0  0  0
   -5.3400    9.2810   -7.3580 C   0  0  0  0  0  0  0  0  0  0  0  0
   -4.2648   10.0228   -7.5359 N   0  0  0  0  0  0  0  0  0  0  0  0
   -5.5281    8.4130   -6.2060 C   0  0  0  0  0  0  0  0  0  0  0  0
   -4.4679    7.7387   -5.6281 C   0  0  0  0  0  0  0  0  0  0  0  0
   -4.6600    6.9419   -4.5277 C   0  0  0  0  0  0  0  0  0  0  0  0
   -5.9101    6.7699   -3.9697 C   0  0  0  0  0  0  0  0  0  0  0  0
   -6.9759    7.4399   -4.5579 C   0  0  0  0  0  0  0  0  0  0  0  0
   -6.7842    8.2539   -5.6509 C   0  0  0  0  0  0  0  0  0  0  0  0
   -8.6622    7.2889   -3.9531 S   0  0  0  0  0  0  0  0  0  0  0  0
   -9.2132    8.9471   -3.4730 C   0  0  0  0  0  0  0  0  0  0  0  0
   -8.0201    9.8151   -3.0207 C   0  0  0  0  0  0  0  0  0  0  0  0
   -8.4070   10.8679   -2.0651 N   0  3  0  0  0  0  0  0  0  0  0  0
   -9.7688   11.3442   -2.3741 C   0  0  0  0  0  0  0  0  0  0  0  0
  -10.2312   12.4110   -1.3618 C   0  0  0  0  0  0  0  0  0  0  0  0
   -9.2443   13.5922   -1.3599 C   0  0  0  0  0  0  0  0  0  0  0  0
   -7.8198   13.0740   -1.0852 C   0  0  0  0  0  0  0  0  0  0  0  0
   -7.4530   11.9951   -2.1232 C   0  0  0  0  0  0  0  0  0  0  0  0
   -5.9452    5.8568   -2.7420 C   0  0  0  0  0  0  0  0  0  0  0  0
   -4.9472    4.8881   -2.7811 F   0  0  0  0  0  0  0  0  0  0  0  0
   -7.1420    5.1659   -2.5929 F   0  0  0  0  0  0  0  0  0  0  0  0
   -5.7381    6.5909   -1.5781 F   0  0  0  0  0  0  0  0  0  0  0  0
   -7.5842    8.9489   -8.8241 C   0  0  0  0  0  0  0  0  0  0  0  0
   -8.2562    9.7459   -9.8751 N   0  0  0  0  0  0  0  0  0  0  0  0
   -7.3181    9.9450  -11.0010 C   0  0  0  0  0  0  0  0  0  0  0  0
   -6.0938   10.7928  -10.5729 C   0  0  0  0  0  0  0  0  0  0  0  0
   -9.7912    9.3101  -10.1698 S   0  0  0  0  0  0  0  0  0  0  0  0
   -9.8658    7.9420   -9.7660 O   0  0  0  0  0  0  0  0  0  0  0  0
  -10.0689    9.5798  -11.5450 O   0  0  0  0  0  0  0  0  0  0  0  0
  -10.9189   10.2888   -9.1311 C   0  0  0  0  0  0  0  0  0  0  0  0
   -9.5604   14.3842   -0.5171 F   0  0  0  0  0  0  0  0  0  0  0  0
   -9.2641   14.1291   -2.4331 F   0  0  0  0  0  0  0  0  0  0  0  0
   -4.5662   13.3630   -8.4240 O   0  0  0  0  0  0  0  0  0  0  0  0
   -2.8849   13.8322   -9.3200 H   0  0  0  0  0  0  0  0  0  0  0  0
   -0.2093   18.2000   -5.5070 H   0  0  0  0  0  0  0  0  0  0  0  0
    0.8139   15.4249   -5.8330 H   0  0  0  0  0  0  0  0  0  0  0  0
   -0.7248   15.4542   -3.7393 H   0  0  0  0  0  0  0  0  0  0  0  0
   -2.1312   16.3300   -4.7861 H   0  0  0  0  0  0  0  0  0  0  0  0
   -2.5059   13.8240   -4.6131 H   0  0  0  0  0  0  0  0  0  0  0  0
   -0.7431   13.4540   -5.3882 H   0  0  0  0  0  0  0  0  0  0  0  0
   -1.6999   15.0319   -8.7501 H   0  0  0  0  0  0  0  0  0  0  0  0
   -0.2799   14.1498   -7.7231 H   0  0  0  0  0  0  0  0  0  0  0  0
    0.1170   16.6709   -7.9590 H   0  0  0  0  0  0  0  0  0  0  0  0
   -1.6448   17.0421   -7.1909 H   0  0  0  0  0  0  0  0  0  0  0  0
   -3.5303   12.6210   -6.4258 H   0  0  0  0  0  0  0  0  0  0  0  0
   -1.8130   12.2239   -7.2248 H   0  0  0  0  0  0  0  0  0  0  0  0
   -3.4751   11.7689  -10.3867 H   0  0  0  0  0  0  0  0  0  0  0  0
   -2.2549   11.1929   -8.9838 H   0  0  0  0  0  0  0  0  0  0  0  0
   -3.5491    7.8379   -6.0090 H   0  0  0  0  0  0  0  0  0  0  0  0
   -3.8721    6.4760   -4.1252 H   0  0  0  0  0  0  0  0  0  0  0  0
   -7.5650    8.7321   -6.0519 H   0  0  0  0  0  0  0  0  0  0  0  0
   -9.7309    9.4499   -4.4321 H   0  0  0  0  0  0  0  0  0  0  0  0
  -10.0247    8.8691   -2.5917 H   0  0  0  0  0  0  0  0  0  0  0  0
   -7.5952   10.3440   -4.0119 H   0  0  0  0  0  0  0  0  0  0  0  0
   -7.1410    9.1329   -2.5668 H   0  0  0  0  0  0  0  0  0  0  0  0
  -10.5490   10.4352   -2.3161 H   0  0  0  0  0  0  0  0  0  0  0  0
   -9.7887   11.8010   -3.4839 H   0  0  0  0  0  0  0  0  0  0  0  0
  -10.2651   11.9171   -0.2699 H   0  0  0  0  0  0  0  0  0  0  0  0
  -11.3259   12.8010   -1.6601 H   0  0  0  0  0  0  0  0  0  0  0  0
   -7.0419   13.9840   -1.1569 H   0  0  0  0  0  0  0  0  0  0  0  0
   -7.7743   12.5987    0.0151 H   0  0  0  0  0  0  0  0  0  0  0  0
   -7.4589   12.4810   -3.2212 H   0  0  0  0  0  0  0  0  0  0  0  0
   -6.3400   11.6220   -1.8749 H   0  0  0  0  0  0  0  0  0  0  0  0
   -7.4862    7.8079   -9.1821 H   0  0  0  0  0  0  0  0  0  0  0  0
   -8.2801    8.9949   -7.8459 H   0  0  0  0  0  0  0  0  0  0  0  0
   -6.9428    8.8778  -11.4010 H   0  0  0  0  0  0  0  0  0  0  0  0
   -7.8700   10.5229  -11.8951 H   0  0  0  0  0  0  0  0  0  0  0  0
   -6.4270   11.9410  -10.4692 H   0  0  0  0  0  0  0  0  0  0  0  0
   -5.2561   10.6981  -11.4262 H   0  0  0  0  0  0  0  0  0  0  0  0
  -11.0141   11.4130   -9.5418 H   0  0  0  0  0  0  0  0  0  0  0  0
  -12.0139    9.7991   -9.1409 H   0  0  0  0  0  0  0  0  0  0  0  0
  -10.5202   10.3159   -7.9990 H   0  0  0  0  0  0  0  0  0  0  0  0
    4.1979   16.7130   -4.1317 H   0  0  0  0  0  0  0  0  0  0  0  0
    2.5287   16.2682   -5.3084 H   0  0  0  0  0  0  0  0  0  0  0  0
    1.6798   15.8741   -3.8136 H   0  0  0  0  0  0  0  0  0  0  0  0
   -2.9463   14.9138   -6.7057 H   0  0  0  0  0  0  0  0  0  0  0  0
   -8.4053   10.5162   -1.2234 H   0  0  0  0  0  0  0  0  0  0  0  0
   -5.0516   13.3942   -9.3046 H   0  0  0  0  0  0  0  0  0  0  0  0
  1  2  1  0  0  0  0
  2  3  1  0  0  0  0
  3  4  2  0  0  0  0
  3  5  1  0  0  0  0
  5  6  1  0  0  0  0
  5 51  1  0  0  0  0
  6  7  1  0  0  0  0
  6 11  1  0  0  0  0
  6 52  1  6  0  0  0
  7  8  1  0  0  0  0
  7 53  1  0  0  0  0
  7 54  1  0  0  0  0
  8  9  1  0  0  0  0
  8 55  1  0  0  0  0
  8 56  1  0  0  0  0
  9 10  1  0  0  0  0
  9 12  1  0  0  0  0
  9 92  1  1  0  0  0
 10 11  1  0  0  0  0
 10 57  1  0  0  0  0
 10 58  1  0  0  0  0
 11 59  1  0  0  0  0
 11 60  1  0  0  0  0
 12 13  1  0  0  0  0
 12 61  1  0  0  0  0
 12 62  1  0  0  0  0
 13 14  1  0  0  0  0
 13 49  1  0  0  0  0
 13 50  1  6  0  0  0
 14 15  1  0  0  0  0
 14 63  1  0  0  0  0
 14 64  1  0  0  0  0
 15 16  1  0  0  0  0
 15 19  1  0  0  0  0
 16 17  2  0  0  0  0
 16 42  1  0  0  0  0
 17 18  1  0  0  0  0
 17 39  1  0  0  0  0
 18 19  2  0  0  0  0
 18 20  1  0  0  0  0
 20 21  2  0  0  0  0
 20 25  1  0  0  0  0
 21 22  1  0  0  0  0
 21 65  1  0  0  0  0
 22 23  2  0  0  0  0
 22 66  1  0  0  0  0
 23 24  1  0  0  0  0
 23 35  1  0  0  0  0
 24 25  2  0  0  0  0
 24 26  1  0  0  0  0
 25 67  1  0  0  0  0
 26 27  1  0  0  0  0
 27 28  1  0  0  0  0
 27 68  1  0  0  0  0
 27 69  1  0  0  0  0
 28 29  1  0  0  0  0
 28 70  1  0  0  0  0
 28 71  1  0  0  0  0
 29 30  1  0  0  0  0
 29 34  1  0  0  0  0
 30 31  1  0  0  0  0
 30 72  1  0  0  0  0
 30 73  1  0  0  0  0
 31 32  1  0  0  0  0
 31 74  1  0  0  0  0
 31 75  1  0  0  0  0
 32 33  1  0  0  0  0
 32 47  1  0  0  0  0
 32 48  1  0  0  0  0
 33 34  1  0  0  0  0
 33 76  1  0  0  0  0
 33 77  1  0  0  0  0
 34 78  1  0  0  0  0
 34 79  1  0  0  0  0
 35 36  1  0  0  0  0
 35 37  1  0  0  0  0
 35 38  1  0  0  0  0
 39 40  1  0  0  0  0
 39 80  1  0  0  0  0
 39 81  1  0  0  0  0
 40 41  1  0  0  0  0
 40 43  1  0  0  0  0
 41 42  1  0  0  0  0
 41 82  1  0  0  0  0
 41 83  1  0  0  0  0
 42 84  1  0  0  0  0
 42 85  1  0  0  0  0
 43 44  2  0  0  0  0
 43 45  2  0  0  0  0
 43 46  1  0  0  0  0
 46 86  1  0  0  0  0
 46 87  1  0  0  0  0
 46 88  1  0  0  0  0
 49 94  1  0  0  0  0
 89  1  1  0  0  0  0
 90  2  1  0  0  0  0
 91  2  1  0  0  0  0
 93 29  1  0  0  0  0
M  CHG  2   9   1  29   1
M  END
$$$$
