# Molecule written by the XED library from Cresset
@<TRIPOS>MOLECULE
CatS_252
    90     94      1
SMALL
USER_CHARGES
@<TRIPOS>ATOM
      1  C4         -0.1247   16.1699   -5.7826 C.3       1 MOL1       -0.0872
      2  C5         -1.1910   15.5857   -4.8382 C.3       1 MOL1       -0.0834
      3  C6         -1.6669   14.2211   -5.3740 C.3       1 MOL1       -0.0630
      4  N2         -2.2338   14.3439   -6.7309 N.4       1 MOL1       -0.2283
      5  C7         -1.2232   14.8908   -7.6591 C.3       1 MOL1       -0.0630
      6  C8         -0.7220   16.2749   -7.1988 C.3       1 MOL1       -0.0834
      7  C9         -2.7049   13.0260   -7.1973 C.3       1 MOL1       -0.0328
      8  C10        -3.4129   13.0568   -8.5710 C.3       1 MOL1        0.0191
      9  C11        -3.3396   11.6548   -9.2003 C.3       1 MOL1        0.0979
     10  N3         -4.3390   10.6959   -8.7085 N.pl3     1 MOL1       -0.0670
     11  C12        -5.5308   10.3252   -9.2411 C.ar      1 MOL1        0.0572
     12  C13        -6.2053    9.4819   -8.4578 C.ar      1 MOL1       -0.0684
     13  C14        -5.3399    9.2808   -7.3580 C.ar      1 MOL1        0.0392
     14  N4         -4.2648   10.0228   -7.5357 N.2       1 MOL1       -0.2943
     15  C15        -5.5281    8.4130   -6.2058 C.ar      1 MOL1       -0.0066
     16  C16        -4.4676    7.7389   -5.6280 C.ar      1 MOL1       -0.0846
     17  C17        -4.6601    6.9418   -4.5281 C.ar      1 MOL1       -0.0687
     18  C18        -5.9102    6.7698   -3.9696 C.ar      1 MOL1        0.0171
     19  C19        -6.9758    7.4399   -4.5579 C.ar      1 MOL1        0.0480
     20  C20        -6.7840    8.2539   -5.6505 C.ar      1 MOL1       -0.0655
     21  S1         -8.6623    7.2887   -3.9529 S.3       1 MOL1       -0.1783
     22  C21        -9.2128    8.9472   -3.4728 C.3       1 MOL1       -0.0087
     23  C22        -8.0196    9.8151   -3.0206 C.3       1 MOL1       -0.0441
     24  N5         -8.4072   10.8677   -2.0650 N.4       1 MOL1       -0.2284
     25  C23        -9.7688   11.3442   -2.3740 C.3       1 MOL1       -0.0578
     26  C24       -10.2311   12.4112   -1.3619 C.3       1 MOL1       -0.0539
     27  C25        -9.2443   13.5920   -1.3597 C.3       1 MOL1       -0.0117
     28  C26        -7.8201   13.0741   -1.0855 C.3       1 MOL1       -0.0539
     29  C27        -7.4529   11.9948   -2.1228 C.3       1 MOL1       -0.0578
     30  C28        -5.9448    5.8565   -2.7420 C.3       1 MOL1        0.4149
     31  F1         -4.9471    4.8880   -2.7810 F         1 MOL1       -0.1514
     32  F2         -7.1418    5.1657   -2.5932 F         1 MOL1       -0.1514
     33  F3         -5.7380    6.5909   -1.5780 F         1 MOL1       -0.1514
     34  C29        -7.5838    8.9489   -8.8238 C.3       1 MOL1        0.1169
     35  N6         -8.2561    9.7461   -9.8750 N.3       1 MOL1       -0.4606
     36  C30        -7.3181    9.9450  -11.0010 C.3       1 MOL1        0.0844
     37  C31        -6.0939   10.7931  -10.5728 C.3       1 MOL1       -0.0158
     38  S2         -9.7910    9.3104  -10.1695 S.3       1 MOL1        0.4316
     39  O3         -9.8657    7.9421   -9.7664 O.2       1 MOL1       -0.3139
     40  O4        -10.0689    9.5801  -11.5448 O.2       1 MOL1       -0.3139
     41  C32       -10.9189   10.2893   -9.1312 C.3       1 MOL1        0.0421
     42  H33        -9.5604   14.3840   -0.5174 C.3       1 MOL1       -0.0891
     43  H34        -9.2640   14.1289   -2.4329 O.3       1 MOL1       -0.4397
     44  H18        -4.5658   13.3630   -8.4239 O.3       1 MOL1       -0.4408
     45  H19        -2.8849   13.8322   -9.3199 H         1 MOL1        0.0680
     46  H7          0.8140   15.4249   -5.8329 H         1 MOL1        0.0460
     47  H8         -0.7251   15.4539   -3.7392 H         1 MOL1        0.0467
     48  H9         -2.1307   16.3300   -4.7861 H         1 MOL1        0.0467
     49  H10        -2.5056   13.8239   -4.6130 H         1 MOL1        0.0529
     50  H11        -0.7428   13.4539   -5.3880 H         1 MOL1        0.0529
     51  H12        -1.7000   15.0321   -8.7497 H         1 MOL1        0.0529
     52  H13        -0.2800   14.1497   -7.7231 H         1 MOL1        0.0529
     53  H14         0.1172   16.6709   -7.9592 H         1 MOL1        0.0467
     54  H15        -1.6448   17.0419   -7.1909 H         1 MOL1        0.0467
     55  H16        -3.5302   12.6211   -6.4257 H         1 MOL1        0.0549
     56  H17        -1.8131   12.2240   -7.2247 H         1 MOL1        0.0549
     57  H20        -3.4749   11.7686  -10.3870 H         1 MOL1        0.0624
     58  H21        -2.2548   11.1928   -8.9839 H         1 MOL1        0.0624
     59  H22        -3.5486    7.8381   -6.0091 H         1 MOL1        0.0910
     60  H23        -3.8720    6.4759   -4.1253 H         1 MOL1        0.0908
     61  H24        -7.5648    8.7320   -6.0520 H         1 MOL1        0.0929
     62  H25        -9.7310    9.4500   -4.4319 H         1 MOL1        0.0553
     63  H26       -10.0247    8.8692   -2.5915 H         1 MOL1        0.0553
     64  H27        -7.5947   10.3441   -4.0120 H         1 MOL1        0.0547
     65  H28        -7.1413    9.1329   -2.5672 H         1 MOL1        0.0547
     66  H29       -10.5487   10.4349   -2.3162 H         1 MOL1        0.0529
     67  H30        -9.7887   11.8011   -3.4838 H         1 MOL1        0.0529
     68  H31       -10.2648   11.9164   -0.2699 H         1 MOL1        0.0491
     69  H32       -11.3255   12.8012   -1.6600 H         1 MOL1        0.0491
     70  H35        -7.0419   13.9838   -1.1571 H         1 MOL1        0.0491
     71  H36        -7.7742   12.5992    0.0151 H         1 MOL1        0.0491
     72  H37        -7.4591   12.4814   -3.2211 H         1 MOL1        0.0529
     73  H38        -6.3403   11.6217   -1.8750 H         1 MOL1        0.0529
     74  H39        -7.4863    7.8079   -9.1818 H         1 MOL1        0.0628
     75  H40        -8.2800    8.9949   -7.8458 H         1 MOL1        0.0628
     76  H41        -6.9427    8.8781  -11.4007 H         1 MOL1        0.0601
     77  H42        -7.8697   10.5228  -11.8949 H         1 MOL1        0.0601
     78  H43        -6.4274   11.9412  -10.4688 H         1 MOL1        0.0516
     79  H44        -5.2559   10.6981  -11.4261 H         1 MOL1        0.0516
     80  H45       -11.0141   11.4132   -9.5421 H         1 MOL1        0.0588
     81  H46       -12.0133    9.7993   -9.1412 H         1 MOL1        0.0588
     82  H47       -10.5201   10.3165   -7.9994 H         1 MOL1        0.0588
     83  H          -2.9462   14.9135   -6.7056 H         1 MOL1        0.1921
     84  H          -8.4054   10.5166   -1.2234 H         1 MOL1        0.1921
     85  H           0.2258   17.2511   -5.3976 H         1 MOL1        0.0460
     86  H         -10.6679   14.8130   -0.7017 H         1 MOL1        0.0457
     87  H          -9.5369   13.9349    0.5971 H         1 MOL1        0.0457
     88  H          -8.8303   15.3386   -0.5348 H         1 MOL1        0.0457
     89  H         -10.2007   14.3668   -2.7146 H         1 MOL1        0.3291
     90  H          -5.0477   13.4100   -9.3057 H         1 MOL1        0.3291
@<TRIPOS>BOND
     1      1      2 1 
     2      1      6 1 
     3      2      3 1 
     4      3      4 1 
     5      4      5 1 
     6      4      7 1 
     7      5      6 1 
     8      7      8 1 
     9      8      9 1 
    10      8     44 1 
    11      9     10 1 
    12     10     11 ar
    13     10     14 ar
    14     11     12 ar
    15     11     37 1 
    16     12     13 ar
    17     12     34 1 
    18     13     14 ar
    19     13     15 1 
    20     15     16 ar
    21     15     20 ar
    22     16     17 ar
    23     17     18 ar
    24     18     19 ar
    25     18     30 1 
    26     19     20 ar
    27     19     21 1 
    28     21     22 1 
    29     22     23 1 
    30     23     24 1 
    31     24     25 1 
    32     24     29 1 
    33     25     26 1 
    34     26     27 1 
    35     27     28 1 
    36     27     42 1 
    37     27     43 1 
    38     28     29 1 
    39     30     31 1 
    40     30     32 1 
    41     30     33 1 
    42     34     35 1 
    43     35     36 1 
    44     35     38 1 
    45     36     37 1 
    46     38     39 2 
    47     38     40 2 
    48     38     41 1 
    49      1     46 1 
    50      2     47 1 
    51      2     48 1 
    52      3     49 1 
    53      3     50 1 
    54      5     51 1 
    55      5     52 1 
    56      6     53 1 
    57      6     54 1 
    58      7     55 1 
    59      7     56 1 
    60      8     45 1 
    61      9     57 1 
    62      9     58 1 
    63     16     59 1 
    64     17     60 1 
    65     20     61 1 
    66     22     62 1 
    67     22     63 1 
    68     23     64 1 
    69     23     65 1 
    70     25     66 1 
    71     25     67 1 
    72     26     68 1 
    73     26     69 1 
    74     28     70 1 
    75     28     71 1 
    76     29     72 1 
    77     29     73 1 
    78     34     74 1 
    79     34     75 1 
    80     36     76 1 
    81     36     77 1 
    82     37     78 1 
    83     37     79 1 
    84     41     80 1 
    85     41     81 1 
    86     41     82 1 
    87     44     90 1 
    88     83      4 1 
    89     84     24 1 
    90     85      1 1 
    91     86     42 1 
    92     87     42 1 
    93     88     42 1 
    94     89     43 1 
@<TRIPOS>SUBSTRUCTURE
     1 MOL1         1 MOLECULE          1 A
