@<TRIPOS>MOLECULE
10
 41 43 0 0 0
SMALL
GASTEIGER
****
Structure written by MMmdl.
@<TRIPOS>ATOM
      1 N          24.5557   41.3942    2.9358 N.pl3   1  LIG1       -0.3136
      2 C          24.8217   42.5879    2.1047 C.3     1  LIG1        0.0189
      3 C          25.8975   43.4906    2.7355 C.3     1  LIG1        0.0086
      4 C          27.1938   42.7114    3.0214 C.3     1  LIG1       -0.0135
      5 C          26.8897   41.4069    3.7882 C.3     1  LIG1        0.0086
      6 C          25.7738   40.5799    3.1148 C.3     1  LIG1        0.0189
      7 C          19.6903   40.5200    5.5265 C.ar    1  LIG1        0.0215
      8 C          19.3824   40.8396    6.8595 C.ar    1  LIG1        0.0684
      9 C          18.0812   40.6300    7.3396 C.ar    1  LIG1        0.0599
     10 C          17.1026   40.0983    6.5003 C.ar    1  LIG1       -0.0419
     11 C          17.4075   39.7897    5.1791 C.ar    1  LIG1       -0.0597
     12 C          18.6880   40.0180    4.6931 C.ar    1  LIG1       -0.0510
     13 C          21.0236   40.7425    4.9440 C.ar    1  LIG1        0.0906
     14 N          21.0730   41.7667    4.0636 N.ar    1  LIG1       -0.2500
     15 C          22.2439   41.9993    3.4410 C.ar    1  LIG1        0.0682
     16 C          23.3841   41.2146    3.6674 C.ar    1  LIG1        0.1396
     17 N          23.3208   40.1779    4.5575 N.ar    1  LIG1       -0.2366
     18 C          22.1506   39.9550    5.2090 C.ar    1  LIG1        0.0557
     19 CL         17.6473   41.0428    8.9606 Cl      1  LIG1       -0.0820
     20 CL         20.5761   41.5664    7.8891 Cl      1  LIG1       -0.0814
     21 N          28.0749   43.5997    3.9053 N.4     1  LIG1        0.2228
     22 C          27.9744   42.4341    1.7292 C.3     1  LIG1       -0.0187
     23 H          25.0585   42.3021    1.0792 H       1  LIG1        0.0466
     24 H          23.9442   43.2084    1.9782 H       1  LIG1        0.0466
     25 H          25.4794   43.9544    3.6310 H       1  LIG1        0.0338
     26 H          26.0902   44.3302    2.0637 H       1  LIG1        0.0338
     27 H          26.5783   41.6104    4.8061 H       1  LIG1        0.0338
     28 H          27.7884   40.7983    3.8871 H       1  LIG1        0.0338
     29 H          26.1064   40.1787    2.1571 H       1  LIG1        0.0466
     30 H          25.5597   39.6965    3.7150 H       1  LIG1        0.0466
     31 H          16.0953   39.9519    6.8631 H       1  LIG1        0.0633
     32 H          16.6529   39.3881    4.5218 H       1  LIG1        0.0618
     33 H          18.9075   39.7684    3.6629 H       1  LIG1        0.0625
     34 H          28.9389   43.1200    4.1164 H       1  LIG1        0.1999
     35 H          27.4154   41.7693    1.0708 H       1  LIG1        0.0287
     36 H          28.9337   41.9601    1.9428 H       1  LIG1        0.0287
     37 H          28.1654   43.3564    1.1789 H       1  LIG1        0.0287
     38 H          28.2826   44.4545    3.3885 H       1  LIG1        0.1999
     39 H          22.1353   39.1266    5.9026 H       1  LIG1        0.0852
     40 H          22.2035   42.8271    2.7583 H       1  LIG1        0.0865
     41 H          27.6036   43.8514    4.7631 H       1  LIG1        0.1999
@<TRIPOS>BOND
     1     1     2    1
     2     1     6    1
     3     1    16    1
     4     2     3    1
     5     2    23    1
     6     2    24    1
     7     3     4    1
     8     3    25    1
     9     3    26    1
    10     4     5    1
    11     4    21    1
    12     4    22    1
    13     5     6    1
    14     5    27    1
    15     5    28    1
    16     6    29    1
    17     6    30    1
    18     7     8   ar
    19     7    12   ar
    20     7    13    1
    21     8     9   ar
    22     8    20    1
    23     9    10   ar
    24     9    19    1
    25    10    11   ar
    26    10    31    1
    27    11    12   ar
    28    11    32    1
    29    12    33    1
    30    13    14   ar
    31    13    18   ar
    32    14    15   ar
    33    15    16   ar
    34    15    40    1
    35    16    17   ar
    36    17    18   ar
    37    18    39    1
    38    21    34    1
    39    21    38    1
    40    21    41    1
    41    22    35    1
    42    22    36    1
    43    22    37    1
