10
 OpenBabel02152110423D
Structure written by MMmdl.
 41 43  0  0  1  0  0  0  0  0999 V2000
   24.5557   41.3942    2.9358 N   0  0  0  0  0  0  0  0  0  0  0  0
   24.8217   42.5879    2.1047 C   0  0  0  0  0  0  0  0  0  0  0  0
   25.8975   43.4906    2.7355 C   0  0  0  0  0  0  0  0  0  0  0  0
   27.1938   42.7114    3.0214 C   0  0  0  0  0  0  0  0  0  0  0  0
   26.8897   41.4069    3.7882 C   0  0  0  0  0  0  0  0  0  0  0  0
   25.7738   40.5799    3.1148 C   0  0  0  0  0  0  0  0  0  0  0  0
   19.6903   40.5200    5.5265 C   0  0  0  0  0  0  0  0  0  0  0  0
   19.3824   40.8396    6.8595 C   0  0  0  0  0  0  0  0  0  0  0  0
   18.0812   40.6300    7.3396 C   0  0  0  0  0  0  0  0  0  0  0  0
   17.1026   40.0983    6.5003 C   0  0  0  0  0  0  0  0  0  0  0  0
   17.4075   39.7897    5.1791 C   0  0  0  0  0  0  0  0  0  0  0  0
   18.6880   40.0180    4.6931 C   0  0  0  0  0  0  0  0  0  0  0  0
   21.0236   40.7425    4.9440 C   0  0  0  0  0  0  0  0  0  0  0  0
   21.0730   41.7667    4.0636 N   0  0  0  0  0  0  0  0  0  0  0  0
   22.2439   41.9993    3.4410 C   0  0  0  0  0  0  0  0  0  0  0  0
   23.3841   41.2146    3.6674 C   0  0  0  0  0  0  0  0  0  0  0  0
   23.3208   40.1779    4.5575 N   0  0  0  0  0  0  0  0  0  0  0  0
   22.1506   39.9550    5.2090 C   0  0  0  0  0  0  0  0  0  0  0  0
   17.6473   41.0428    8.9606 Cl  0  0  0  0  0  0  0  0  0  0  0  0
   20.5761   41.5664    7.8891 Cl  0  0  0  0  0  0  0  0  0  0  0  0
   28.0749   43.5997    3.9053 N   0  3  0  0  0  0  0  0  0  0  0  0
   27.9744   42.4341    1.7292 C   0  0  0  0  0  0  0  0  0  0  0  0
   25.0585   42.3021    1.0792 H   0  0  0  0  0  0  0  0  0  0  0  0
   23.9442   43.2084    1.9782 H   0  0  0  0  0  0  0  0  0  0  0  0
   25.4794   43.9544    3.6310 H   0  0  0  0  0  0  0  0  0  0  0  0
   26.0902   44.3302    2.0637 H   0  0  0  0  0  0  0  0  0  0  0  0
   26.5783   41.6104    4.8061 H   0  0  0  0  0  0  0  0  0  0  0  0
   27.7884   40.7983    3.8871 H   0  0  0  0  0  0  0  0  0  0  0  0
   26.1064   40.1787    2.1571 H   0  0  0  0  0  0  0  0  0  0  0  0
   25.5597   39.6965    3.7150 H   0  0  0  0  0  0  0  0  0  0  0  0
   16.0953   39.9519    6.8631 H   0  0  0  0  0  0  0  0  0  0  0  0
   16.6529   39.3881    4.5218 H   0  0  0  0  0  0  0  0  0  0  0  0
   18.9075   39.7684    3.6629 H   0  0  0  0  0  0  0  0  0  0  0  0
   28.9389   43.1200    4.1164 H   0  0  0  0  0  0  0  0  0  0  0  0
   27.4154   41.7693    1.0708 H   0  0  0  0  0  0  0  0  0  0  0  0
   28.9337   41.9601    1.9428 H   0  0  0  0  0  0  0  0  0  0  0  0
   28.1654   43.3564    1.1789 H   0  0  0  0  0  0  0  0  0  0  0  0
   28.2826   44.4545    3.3885 H   0  0  0  0  0  0  0  0  0  0  0  0
   22.1353   39.1266    5.9026 H   0  0  0  0  0  0  0  0  0  0  0  0
   22.2035   42.8271    2.7583 H   0  0  0  0  0  0  0  0  0  0  0  0
   27.6036   43.8514    4.7631 H   0  0  0  0  0  0  0  0  0  0  0  0
  1  2  1  0  0  0  0
  1  6  1  0  0  0  0
  1 16  1  0  0  0  0
  2  3  1  0  0  0  0
  2 23  1  0  0  0  0
  2 24  1  0  0  0  0
  3  4  1  0  0  0  0
  3 25  1  0  0  0  0
  3 26  1  0  0  0  0
  4  5  1  0  0  0  0
  4 21  1  0  0  0  0
  4 22  1  0  0  0  0
  5  6  1  0  0  0  0
  5 27  1  0  0  0  0
  5 28  1  0  0  0  0
  6 29  1  0  0  0  0
  6 30  1  0  0  0  0
  7  8  2  0  0  0  0
  7 12  1  0  0  0  0
  7 13  1  0  0  0  0
  8  9  1  0  0  0  0
  8 20  1  0  0  0  0
  9 10  2  0  0  0  0
  9 19  1  0  0  0  0
 10 11  1  0  0  0  0
 10 31  1  0  0  0  0
 11 12  2  0  0  0  0
 11 32  1  0  0  0  0
 12 33  1  0  0  0  0
 13 14  2  0  0  0  0
 13 18  1  0  0  0  0
 14 15  1  0  0  0  0
 15 16  2  0  0  0  0
 15 40  1  0  0  0  0
 16 17  1  0  0  0  0
 17 18  2  0  0  0  0
 18 39  1  0  0  0  0
 21 34  1  0  0  0  0
 21 38  1  0  0  0  0
 21 41  1  0  0  0  0
 22 35  1  0  0  0  0
 22 36  1  0  0  0  0
 22 37  1  0  0  0  0
M  CHG  1  21   1
M  END
>  <ID>
10

>  <IC50 uM>
5.7

$$$$
