@<TRIPOS>MOLECULE
11
 46 48 0 0 0
SMALL
GASTEIGER
****
Structure written by MMmdl.
@<TRIPOS>ATOM
      1 N          24.5722   41.4017    2.9497 N.pl3   1  LIG1       -0.3135
      2 C          24.8073   42.5904    2.1071 C.3     1  LIG1        0.0189
      3 C          25.8882   43.4955    2.7352 C.3     1  LIG1        0.0086
      4 C          27.1844   42.7081    3.0173 C.3     1  LIG1       -0.0135
      5 C          26.8880   41.4066    3.7995 C.3     1  LIG1        0.0086
      6 C          25.7788   40.5760    3.1172 C.3     1  LIG1        0.0189
      7 C          19.6941   40.5278    5.5181 C.ar    1  LIG1        0.0234
      8 C          19.4037   40.8004    6.8683 C.ar    1  LIG1        0.0685
      9 C          18.1005   40.6055    7.3543 C.ar    1  LIG1        0.0599
     10 C          17.1024   40.1270    6.5070 C.ar    1  LIG1       -0.0419
     11 C          17.3911   39.8460    5.1764 C.ar    1  LIG1       -0.0597
     12 C          18.6755   40.0507    4.6853 C.ar    1  LIG1       -0.0510
     13 C          21.0420   40.7304    4.9310 C.ar    1  LIG1        0.1121
     14 N          21.0963   41.7469    4.0374 N.ar    1  LIG1       -0.2481
     15 C          22.2680   41.9826    3.4209 C.ar    1  LIG1        0.0683
     16 C          23.3992   41.2013    3.6601 C.ar    1  LIG1        0.1417
     17 N          23.3400   40.1644    4.5484 N.ar    1  LIG1       -0.2138
     18 C          22.1710   39.9440    5.2012 C.ar    1  LIG1        0.1469
     19 CL         17.6893   40.9440    9.0001 Cl      1  LIG1       -0.0820
     20 CL         20.6364   41.3873    7.9395 Cl      1  LIG1       -0.0814
     21 N          22.1416   38.8888    6.1136 N.pl3   1  LIG1       -0.3304
     22 N          28.0989   43.5943    3.8660 N.4     1  LIG1        0.2228
     23 C          27.9436   42.4192    1.7238 C.3     1  LIG1       -0.0187
     24 H          25.1346   42.2431    1.1260 H       1  LIG1        0.0466
     25 H          23.9305   43.1928    1.8932 H       1  LIG1        0.0466
     26 H          25.4822   43.9052    3.6621 H       1  LIG1        0.0338
     27 H          26.0760   44.3478    2.0795 H       1  LIG1        0.0338
     28 H          26.5544   41.6374    4.8131 H       1  LIG1        0.0338
     29 H          27.7851   40.7941    3.9052 H       1  LIG1        0.0338
     30 H          26.1033   40.2188    2.1391 H       1  LIG1        0.0466
     31 H          25.5804   39.6753    3.6998 H       1  LIG1        0.0466
     32 H          16.1024   39.9768    6.8873 H       1  LIG1        0.0633
     33 H          16.6136   39.4779    4.5216 H       1  LIG1        0.0618
     34 H          18.8881   39.8422    3.6459 H       1  LIG1        0.0625
     35 C          23.3418   38.1054    6.3920 C.3     1  LIG1       -0.0010
     36 H          27.6398   43.8120    4.7398 H       1  LIG1        0.1999
     37 H          28.8803   41.8906    1.9092 H       1  LIG1        0.0287
     38 H          28.1848   43.3317    1.1760 H       1  LIG1        0.0287
     39 H          27.3675   41.7927    1.0417 H       1  LIG1        0.0287
     40 H          28.9634   43.1099    4.0623 H       1  LIG1        0.1999
     41 H          22.2142   42.7915    2.7136 H       1  LIG1        0.0865
     42 H          21.3339   38.7082    6.6920 H       1  LIG1        0.1472
     43 H          23.1102   37.3347    7.1272 H       1  LIG1        0.0426
     44 H          24.1199   38.7600    6.7847 H       1  LIG1        0.0426
     45 H          23.6913   37.6368    5.4721 H       1  LIG1        0.0426
     46 H          28.3039   44.4537    3.3768 H       1  LIG1        0.1999
@<TRIPOS>BOND
     1     1     2    1
     2     1     6    1
     3     1    16    1
     4     2     3    1
     5     2    24    1
     6     2    25    1
     7     3     4    1
     8     3    26    1
     9     3    27    1
    10     4     5    1
    11     4    22    1
    12     4    23    1
    13     5     6    1
    14     5    28    1
    15     5    29    1
    16     6    30    1
    17     6    31    1
    18     7     8   ar
    19     7    12   ar
    20     7    13    1
    21     8     9   ar
    22     8    20    1
    23     9    10   ar
    24     9    19    1
    25    10    11   ar
    26    10    32    1
    27    11    12   ar
    28    11    33    1
    29    12    34    1
    30    13    14   ar
    31    13    18   ar
    32    14    15   ar
    33    15    16   ar
    34    15    41    1
    35    16    17   ar
    36    17    18   ar
    37    18    21    1
    38    21    35    1
    39    21    42    1
    40    22    36    1
    41    22    40    1
    42    22    46    1
    43    23    37    1
    44    23    38    1
    45    23    39    1
    46    35    43    1
    47    35    44    1
    48    35    45    1
