11
 OpenBabel02152110423D
Structure written by MMmdl.
 46 48  0  0  1  0  0  0  0  0999 V2000
   24.5722   41.4017    2.9497 N   0  0  0  0  0  0  0  0  0  0  0  0
   24.8073   42.5904    2.1071 C   0  0  0  0  0  0  0  0  0  0  0  0
   25.8882   43.4955    2.7352 C   0  0  0  0  0  0  0  0  0  0  0  0
   27.1844   42.7081    3.0173 C   0  0  0  0  0  0  0  0  0  0  0  0
   26.8880   41.4066    3.7995 C   0  0  0  0  0  0  0  0  0  0  0  0
   25.7788   40.5760    3.1172 C   0  0  0  0  0  0  0  0  0  0  0  0
   19.6941   40.5278    5.5181 C   0  0  0  0  0  0  0  0  0  0  0  0
   19.4037   40.8004    6.8683 C   0  0  0  0  0  0  0  0  0  0  0  0
   18.1005   40.6055    7.3543 C   0  0  0  0  0  0  0  0  0  0  0  0
   17.1024   40.1270    6.5070 C   0  0  0  0  0  0  0  0  0  0  0  0
   17.3911   39.8460    5.1764 C   0  0  0  0  0  0  0  0  0  0  0  0
   18.6755   40.0507    4.6853 C   0  0  0  0  0  0  0  0  0  0  0  0
   21.0420   40.7304    4.9310 C   0  0  0  0  0  0  0  0  0  0  0  0
   21.0963   41.7469    4.0374 N   0  0  0  0  0  0  0  0  0  0  0  0
   22.2680   41.9826    3.4209 C   0  0  0  0  0  0  0  0  0  0  0  0
   23.3992   41.2013    3.6601 C   0  0  0  0  0  0  0  0  0  0  0  0
   23.3400   40.1644    4.5484 N   0  0  0  0  0  0  0  0  0  0  0  0
   22.1710   39.9440    5.2012 C   0  0  0  0  0  0  0  0  0  0  0  0
   17.6893   40.9440    9.0001 Cl  0  0  0  0  0  0  0  0  0  0  0  0
   20.6364   41.3873    7.9395 Cl  0  0  0  0  0  0  0  0  0  0  0  0
   22.1416   38.8888    6.1136 N   0  0  0  0  0  0  0  0  0  0  0  0
   28.0989   43.5943    3.8660 N   0  3  0  0  0  0  0  0  0  0  0  0
   27.9436   42.4192    1.7238 C   0  0  0  0  0  0  0  0  0  0  0  0
   25.1346   42.2431    1.1260 H   0  0  0  0  0  0  0  0  0  0  0  0
   23.9305   43.1928    1.8932 H   0  0  0  0  0  0  0  0  0  0  0  0
   25.4822   43.9052    3.6621 H   0  0  0  0  0  0  0  0  0  0  0  0
   26.0760   44.3478    2.0795 H   0  0  0  0  0  0  0  0  0  0  0  0
   26.5544   41.6374    4.8131 H   0  0  0  0  0  0  0  0  0  0  0  0
   27.7851   40.7941    3.9052 H   0  0  0  0  0  0  0  0  0  0  0  0
   26.1033   40.2188    2.1391 H   0  0  0  0  0  0  0  0  0  0  0  0
   25.5804   39.6753    3.6998 H   0  0  0  0  0  0  0  0  0  0  0  0
   16.1024   39.9768    6.8873 H   0  0  0  0  0  0  0  0  0  0  0  0
   16.6136   39.4779    4.5216 H   0  0  0  0  0  0  0  0  0  0  0  0
   18.8881   39.8422    3.6459 H   0  0  0  0  0  0  0  0  0  0  0  0
   23.3418   38.1054    6.3920 C   0  0  0  0  0  0  0  0  0  0  0  0
   27.6398   43.8120    4.7398 H   0  0  0  0  0  0  0  0  0  0  0  0
   28.8803   41.8906    1.9092 H   0  0  0  0  0  0  0  0  0  0  0  0
   28.1848   43.3317    1.1760 H   0  0  0  0  0  0  0  0  0  0  0  0
   27.3675   41.7927    1.0417 H   0  0  0  0  0  0  0  0  0  0  0  0
   28.9634   43.1099    4.0623 H   0  0  0  0  0  0  0  0  0  0  0  0
   22.2142   42.7915    2.7136 H   0  0  0  0  0  0  0  0  0  0  0  0
   21.3339   38.7082    6.6920 H   0  0  0  0  0  0  0  0  0  0  0  0
   23.1102   37.3347    7.1272 H   0  0  0  0  0  0  0  0  0  0  0  0
   24.1199   38.7600    6.7847 H   0  0  0  0  0  0  0  0  0  0  0  0
   23.6913   37.6368    5.4721 H   0  0  0  0  0  0  0  0  0  0  0  0
   28.3039   44.4537    3.3768 H   0  0  0  0  0  0  0  0  0  0  0  0
  1  2  1  0  0  0  0
  1  6  1  0  0  0  0
  1 16  1  0  0  0  0
  2  3  1  0  0  0  0
  2 24  1  0  0  0  0
  2 25  1  0  0  0  0
  3  4  1  0  0  0  0
  3 26  1  0  0  0  0
  3 27  1  0  0  0  0
  4  5  1  0  0  0  0
  4 22  1  0  0  0  0
  4 23  1  0  0  0  0
  5  6  1  0  0  0  0
  5 28  1  0  0  0  0
  5 29  1  0  0  0  0
  6 30  1  0  0  0  0
  6 31  1  0  0  0  0
  7  8  2  0  0  0  0
  7 12  1  0  0  0  0
  7 13  1  0  0  0  0
  8  9  1  0  0  0  0
  8 20  1  0  0  0  0
  9 10  2  0  0  0  0
  9 19  1  0  0  0  0
 10 11  1  0  0  0  0
 10 32  1  0  0  0  0
 11 12  2  0  0  0  0
 11 33  1  0  0  0  0
 12 34  1  0  0  0  0
 13 14  2  0  0  0  0
 13 18  1  0  0  0  0
 14 15  1  0  0  0  0
 15 16  2  0  0  0  0
 15 41  1  0  0  0  0
 16 17  1  0  0  0  0
 17 18  2  0  0  0  0
 18 21  1  0  0  0  0
 21 35  1  0  0  0  0
 21 42  1  0  0  0  0
 22 36  1  0  0  0  0
 22 40  1  0  0  0  0
 22 46  1  0  0  0  0
 23 37  1  0  0  0  0
 23 38  1  0  0  0  0
 23 39  1  0  0  0  0
 35 43  1  0  0  0  0
 35 44  1  0  0  0  0
 35 45  1  0  0  0  0
M  CHG  1  22   1
M  END
>  <ID>
11

>  <IC50 uM>
22

$$$$
