@<TRIPOS>MOLECULE
3
 43 45 0 0 0
SMALL
GASTEIGER
****
Structure written by MMmdl.
@<TRIPOS>ATOM
      1 N          24.6991   41.2880    3.1084 N.pl3   1  LIG1       -0.2889
      2 C          24.7544   42.3659    2.0828 C.3     1  LIG1        0.0577
      3 C          26.0819   43.1849    2.0777 C.3     1  LIG1       -0.0091
      4 N          27.2540   42.3327    2.4127 N.4     1  LIG1        0.2332
      5 C          27.1216   41.4947    3.6356 C.3     1  LIG1       -0.0091
      6 C          25.9265   40.5256    3.4438 C.3     1  LIG1        0.0577
      7 C          19.7062   40.2071    5.4923 C.ar    1  LIG1       -0.0118
      8 C          19.4758   40.5221    6.8291 C.ar    1  LIG1       -0.0355
      9 C          18.1971   40.3798    7.3797 C.ar    1  LIG1        0.0416
     10 C          17.1161   39.9866    6.5815 C.ar    1  LIG1       -0.0434
     11 C          17.3356   39.6937    5.2208 C.ar    1  LIG1       -0.0598
     12 C          18.6213   39.8380    4.6722 C.ar    1  LIG1       -0.0538
     13 C          21.0642   40.4372    4.9252 C.ar    1  LIG1        0.0399
     14 C          21.1830   41.4378    3.9557 C.ar    1  LIG1        0.0422
     15 N          22.3711   41.6614    3.3749 N.ar    1  LIG1       -0.2220
     16 C          23.5007   40.9783    3.7010 C.ar    1  LIG1        0.2198
     17 N          23.3990   40.0008    4.6377 N.ar    1  LIG1       -0.1992
     18 C          22.2307   39.6970    5.2474 C.ar    1  LIG1        0.1290
     19 CL         17.9435   40.7315    9.0488 Cl      1  LIG1       -0.0835
     20 N          22.2237   38.6160    6.2287 N.pl3   1  LIG1       -0.3425
     21 C          26.2804   43.8709    0.7586 C.3     1  LIG1       -0.0202
     22 C          28.3857   40.7218    3.8695 C.3     1  LIG1       -0.0202
     23 H          23.9259   43.0694    2.1825 H       1  LIG1        0.0520
     24 H          24.6132   41.8868    1.1127 H       1  LIG1        0.0520
     25 H          26.0127   43.9717    2.8313 H       1  LIG1        0.0863
     26 H          28.0687   42.9223    2.5049 H       1  LIG1        0.2020
     27 H          26.9651   42.1292    4.5101 H       1  LIG1        0.0863
     28 H          25.8054   39.9380    4.3555 H       1  LIG1        0.0520
     29 H          26.1226   39.8073    2.6466 H       1  LIG1        0.0520
     30 H          20.2827   40.8574    7.4643 H       1  LIG1        0.0638
     31 H          16.1290   39.8927    7.0109 H       1  LIG1        0.0632
     32 H          16.5100   39.3854    4.5956 H       1  LIG1        0.0618
     33 H          18.7705   39.6319    3.6214 H       1  LIG1        0.0624
     34 H          20.3445   42.0389    3.6351 H       1  LIG1        0.0838
     35 H          21.3657   38.3671    6.6998 H       1  LIG1        0.1437
     36 H          23.0769   38.1169    6.4362 H       1  LIG1        0.1437
     37 H          25.4101   44.4881    0.5355 H       1  LIG1        0.0285
     38 H          26.4059   43.1231   -0.0245 H       1  LIG1        0.0285
     39 H          27.1694   44.4998    0.8062 H       1  LIG1        0.0285
     40 H          28.2781   40.1120    4.7665 H       1  LIG1        0.0285
     41 H          29.2168   41.4151    3.9991 H       1  LIG1        0.0285
     42 H          28.5810   40.0767    3.0129 H       1  LIG1        0.0285
     43 H          27.3962   41.7024    1.6368 H       1  LIG1        0.2020
@<TRIPOS>BOND
     1     1     2    1
     2     1     6    1
     3     1    16    1
     4     2     3    1
     5     2    23    1
     6     2    24    1
     7     3     4    1
     8     3    21    1
     9     3    25    1
    10     4     5    1
    11     4    26    1
    12     4    43    1
    13     5     6    1
    14     5    22    1
    15     5    27    1
    16     6    28    1
    17     6    29    1
    18     7     8   ar
    19     7    12   ar
    20     7    13    1
    21     8     9   ar
    22     8    30    1
    23     9    10   ar
    24     9    19    1
    25    10    11   ar
    26    10    31    1
    27    11    12   ar
    28    11    32    1
    29    12    33    1
    30    13    14   ar
    31    13    18   ar
    32    14    15   ar
    33    14    34    1
    34    15    16   ar
    35    16    17   ar
    36    17    18   ar
    37    18    20    1
    38    20    35    1
    39    20    36    1
    40    21    37    1
    41    21    38    1
    42    21    39    1
    43    22    40    1
    44    22    41    1
    45    22    42    1
