3
 OpenBabel02152110423D
Structure written by MMmdl.
 43 45  0  0  1  0  0  0  0  0999 V2000
   24.6991   41.2880    3.1084 N   0  0  0  0  0  0  0  0  0  0  0  0
   24.7544   42.3659    2.0828 C   0  0  0  0  0  0  0  0  0  0  0  0
   26.0819   43.1849    2.0777 C   0  0  1  0  0  0  0  0  0  0  0  0
   27.2540   42.3327    2.4127 N   0  3  0  0  0  0  0  0  0  0  0  0
   27.1216   41.4947    3.6356 C   0  0  1  0  0  0  0  0  0  0  0  0
   25.9265   40.5256    3.4438 C   0  0  0  0  0  0  0  0  0  0  0  0
   19.7062   40.2071    5.4923 C   0  0  0  0  0  0  0  0  0  0  0  0
   19.4758   40.5221    6.8291 C   0  0  0  0  0  0  0  0  0  0  0  0
   18.1971   40.3798    7.3797 C   0  0  0  0  0  0  0  0  0  0  0  0
   17.1161   39.9866    6.5815 C   0  0  0  0  0  0  0  0  0  0  0  0
   17.3356   39.6937    5.2208 C   0  0  0  0  0  0  0  0  0  0  0  0
   18.6213   39.8380    4.6722 C   0  0  0  0  0  0  0  0  0  0  0  0
   21.0642   40.4372    4.9252 C   0  0  0  0  0  0  0  0  0  0  0  0
   21.1830   41.4378    3.9557 C   0  0  0  0  0  0  0  0  0  0  0  0
   22.3711   41.6614    3.3749 N   0  0  0  0  0  0  0  0  0  0  0  0
   23.5007   40.9783    3.7010 C   0  0  0  0  0  0  0  0  0  0  0  0
   23.3990   40.0008    4.6377 N   0  0  0  0  0  0  0  0  0  0  0  0
   22.2307   39.6970    5.2474 C   0  0  0  0  0  0  0  0  0  0  0  0
   17.9435   40.7315    9.0488 Cl  0  0  0  0  0  0  0  0  0  0  0  0
   22.2237   38.6160    6.2287 N   0  0  0  0  0  0  0  0  0  0  0  0
   26.2804   43.8709    0.7586 C   0  0  0  0  0  0  0  0  0  0  0  0
   28.3857   40.7218    3.8695 C   0  0  0  0  0  0  0  0  0  0  0  0
   23.9259   43.0694    2.1825 H   0  0  0  0  0  0  0  0  0  0  0  0
   24.6132   41.8868    1.1127 H   0  0  0  0  0  0  0  0  0  0  0  0
   26.0127   43.9717    2.8313 H   0  0  0  0  0  0  0  0  0  0  0  0
   28.0687   42.9223    2.5049 H   0  0  0  0  0  0  0  0  0  0  0  0
   26.9651   42.1292    4.5101 H   0  0  0  0  0  0  0  0  0  0  0  0
   25.8054   39.9380    4.3555 H   0  0  0  0  0  0  0  0  0  0  0  0
   26.1226   39.8073    2.6466 H   0  0  0  0  0  0  0  0  0  0  0  0
   20.2827   40.8574    7.4643 H   0  0  0  0  0  0  0  0  0  0  0  0
   16.1290   39.8927    7.0109 H   0  0  0  0  0  0  0  0  0  0  0  0
   16.5100   39.3854    4.5956 H   0  0  0  0  0  0  0  0  0  0  0  0
   18.7705   39.6319    3.6214 H   0  0  0  0  0  0  0  0  0  0  0  0
   20.3445   42.0389    3.6351 H   0  0  0  0  0  0  0  0  0  0  0  0
   21.3657   38.3671    6.6998 H   0  0  0  0  0  0  0  0  0  0  0  0
   23.0769   38.1169    6.4362 H   0  0  0  0  0  0  0  0  0  0  0  0
   25.4101   44.4881    0.5355 H   0  0  0  0  0  0  0  0  0  0  0  0
   26.4059   43.1231   -0.0245 H   0  0  0  0  0  0  0  0  0  0  0  0
   27.1694   44.4998    0.8062 H   0  0  0  0  0  0  0  0  0  0  0  0
   28.2781   40.1120    4.7665 H   0  0  0  0  0  0  0  0  0  0  0  0
   29.2168   41.4151    3.9991 H   0  0  0  0  0  0  0  0  0  0  0  0
   28.5810   40.0767    3.0129 H   0  0  0  0  0  0  0  0  0  0  0  0
   27.3962   41.7024    1.6368 H   0  0  0  0  0  0  0  0  0  0  0  0
  1  2  1  0  0  0  0
  1  6  1  0  0  0  0
  1 16  1  0  0  0  0
  2  3  1  0  0  0  0
  2 23  1  0  0  0  0
  2 24  1  0  0  0  0
  3  4  1  0  0  0  0
  3 21  1  0  0  0  0
  3 25  1  1  0  0  0
  4  5  1  0  0  0  0
  4 26  1  0  0  0  0
  4 43  1  0  0  0  0
  5  6  1  0  0  0  0
  5 22  1  0  0  0  0
  5 27  1  1  0  0  0
  6 28  1  0  0  0  0
  6 29  1  0  0  0  0
  7  8  2  0  0  0  0
  7 12  1  0  0  0  0
  7 13  1  0  0  0  0
  8  9  1  0  0  0  0
  8 30  1  0  0  0  0
  9 10  2  0  0  0  0
  9 19  1  0  0  0  0
 10 11  1  0  0  0  0
 10 31  1  0  0  0  0
 11 12  2  0  0  0  0
 11 32  1  0  0  0  0
 12 33  1  0  0  0  0
 13 14  2  0  0  0  0
 13 18  1  0  0  0  0
 14 15  1  0  0  0  0
 14 34  1  0  0  0  0
 15 16  2  0  0  0  0
 16 17  1  0  0  0  0
 17 18  2  0  0  0  0
 18 20  1  0  0  0  0
 20 35  1  0  0  0  0
 20 36  1  0  0  0  0
 21 37  1  0  0  0  0
 21 38  1  0  0  0  0
 21 39  1  0  0  0  0
 22 40  1  0  0  0  0
 22 41  1  0  0  0  0
 22 42  1  0  0  0  0
M  CHG  1   4   1
M  END
>  <ID>
3

>  <IC50 uM>
99

$$$$
