@<TRIPOS>MOLECULE
4
 43 45 0 0 0
SMALL
GASTEIGER
****
Structure written by MMmdl.
@<TRIPOS>ATOM
      1 N          24.6991   41.2880    3.1084 N.pl3   1  LIG1       -0.2889
      2 C          24.7544   42.3659    2.0828 C.3     1  LIG1        0.0577
      3 C          26.0819   43.1849    2.0777 C.3     1  LIG1       -0.0091
      4 N          27.2540   42.3327    2.4127 N.4     1  LIG1        0.2332
      5 C          27.1216   41.4947    3.6356 C.3     1  LIG1       -0.0091
      6 C          25.9265   40.5256    3.4438 C.3     1  LIG1        0.0577
      7 C          19.7062   40.2071    5.4923 C.ar    1  LIG1       -0.0117
      8 C          19.4758   40.5221    6.8291 C.ar    1  LIG1       -0.0341
      9 C          18.1971   40.3798    7.3797 C.ar    1  LIG1        0.0598
     10 C          17.1161   39.9866    6.5815 C.ar    1  LIG1        0.0593
     11 C          17.3356   39.6937    5.2208 C.ar    1  LIG1       -0.0414
     12 C          18.6213   39.8380    4.6722 C.ar    1  LIG1       -0.0524
     13 C          21.0642   40.4372    4.9252 C.ar    1  LIG1        0.0399
     14 C          21.1830   41.4378    3.9557 C.ar    1  LIG1        0.0422
     15 N          22.3711   41.6614    3.3749 N.ar    1  LIG1       -0.2220
     16 C          23.5007   40.9783    3.7010 C.ar    1  LIG1        0.2198
     17 N          23.3990   40.0008    4.6377 N.ar    1  LIG1       -0.1992
     18 C          22.2307   39.6970    5.2474 C.ar    1  LIG1        0.1290
     19 CL         17.9740   40.7392    9.0549 Cl      1  LIG1       -0.0820
     20 N          22.2239   38.6159    6.2287 N.pl3   1  LIG1       -0.3425
     21 C          26.2809   43.8707    0.7586 C.3     1  LIG1       -0.0202
     22 C          28.3860   40.7221    3.8693 C.3     1  LIG1       -0.0202
     23 CL         15.5237   39.8315    7.2337 Cl      1  LIG1       -0.0820
     24 H          23.9259   43.0695    2.1822 H       1  LIG1        0.0520
     25 H          24.6135   41.8868    1.1127 H       1  LIG1        0.0520
     26 H          26.0130   43.9718    2.8311 H       1  LIG1        0.0863
     27 H          28.0677   42.9235    2.5068 H       1  LIG1        0.2020
     28 H          26.9651   42.1293    4.5101 H       1  LIG1        0.0863
     29 H          25.8056   39.9378    4.3555 H       1  LIG1        0.0520
     30 H          26.1227   39.8075    2.6465 H       1  LIG1        0.0520
     31 H          20.2825   40.8574    7.4646 H       1  LIG1        0.0639
     32 H          16.5083   39.3864    4.5978 H       1  LIG1        0.0633
     33 H          18.7696   39.6318    3.6213 H       1  LIG1        0.0624
     34 H          20.3446   42.0389    3.6350 H       1  LIG1        0.0838
     35 H          21.3659   38.3670    6.6998 H       1  LIG1        0.1437
     36 H          23.0771   38.1169    6.4362 H       1  LIG1        0.1437
     37 H          25.4108   44.4881    0.5352 H       1  LIG1        0.0285
     38 H          26.4065   43.1229   -0.0244 H       1  LIG1        0.0285
     39 H          27.1699   44.4995    0.8065 H       1  LIG1        0.0285
     40 H          28.2786   40.1123    4.7662 H       1  LIG1        0.0285
     41 H          29.2169   41.4157    3.9988 H       1  LIG1        0.0285
     42 H          28.5813   40.0771    3.0126 H       1  LIG1        0.0285
     43 H          27.3995   41.7038    1.6361 H       1  LIG1        0.2020
@<TRIPOS>BOND
     1     1     2    1
     2     1     6    1
     3     1    16    1
     4     2     3    1
     5     2    24    1
     6     2    25    1
     7     3     4    1
     8     3    21    1
     9     3    26    1
    10     4     5    1
    11     4    27    1
    12     4    43    1
    13     5     6    1
    14     5    22    1
    15     5    28    1
    16     6    29    1
    17     6    30    1
    18     7     8   ar
    19     7    12   ar
    20     7    13    1
    21     8     9   ar
    22     8    31    1
    23     9    10   ar
    24     9    19    1
    25    10    11   ar
    26    10    23    1
    27    11    12   ar
    28    11    32    1
    29    12    33    1
    30    13    14   ar
    31    13    18   ar
    32    14    15   ar
    33    14    34    1
    34    15    16   ar
    35    16    17   ar
    36    17    18   ar
    37    18    20    1
    38    20    35    1
    39    20    36    1
    40    21    37    1
    41    21    38    1
    42    21    39    1
    43    22    40    1
    44    22    41    1
    45    22    42    1
