4
 OpenBabel02152110423D
Structure written by MMmdl.
 43 45  0  0  1  0  0  0  0  0999 V2000
   24.6991   41.2880    3.1084 N   0  0  0  0  0  0  0  0  0  0  0  0
   24.7544   42.3659    2.0828 C   0  0  0  0  0  0  0  0  0  0  0  0
   26.0819   43.1849    2.0777 C   0  0  1  0  0  0  0  0  0  0  0  0
   27.2540   42.3327    2.4127 N   0  3  0  0  0  0  0  0  0  0  0  0
   27.1216   41.4947    3.6356 C   0  0  1  0  0  0  0  0  0  0  0  0
   25.9265   40.5256    3.4438 C   0  0  0  0  0  0  0  0  0  0  0  0
   19.7062   40.2071    5.4923 C   0  0  0  0  0  0  0  0  0  0  0  0
   19.4758   40.5221    6.8291 C   0  0  0  0  0  0  0  0  0  0  0  0
   18.1971   40.3798    7.3797 C   0  0  0  0  0  0  0  0  0  0  0  0
   17.1161   39.9866    6.5815 C   0  0  0  0  0  0  0  0  0  0  0  0
   17.3356   39.6937    5.2208 C   0  0  0  0  0  0  0  0  0  0  0  0
   18.6213   39.8380    4.6722 C   0  0  0  0  0  0  0  0  0  0  0  0
   21.0642   40.4372    4.9252 C   0  0  0  0  0  0  0  0  0  0  0  0
   21.1830   41.4378    3.9557 C   0  0  0  0  0  0  0  0  0  0  0  0
   22.3711   41.6614    3.3749 N   0  0  0  0  0  0  0  0  0  0  0  0
   23.5007   40.9783    3.7010 C   0  0  0  0  0  0  0  0  0  0  0  0
   23.3990   40.0008    4.6377 N   0  0  0  0  0  0  0  0  0  0  0  0
   22.2307   39.6970    5.2474 C   0  0  0  0  0  0  0  0  0  0  0  0
   17.9740   40.7392    9.0549 Cl  0  0  0  0  0  0  0  0  0  0  0  0
   22.2239   38.6159    6.2287 N   0  0  0  0  0  0  0  0  0  0  0  0
   26.2809   43.8707    0.7586 C   0  0  0  0  0  0  0  0  0  0  0  0
   28.3860   40.7221    3.8693 C   0  0  0  0  0  0  0  0  0  0  0  0
   15.5237   39.8315    7.2337 Cl  0  0  0  0  0  0  0  0  0  0  0  0
   23.9259   43.0695    2.1822 H   0  0  0  0  0  0  0  0  0  0  0  0
   24.6135   41.8868    1.1127 H   0  0  0  0  0  0  0  0  0  0  0  0
   26.0130   43.9718    2.8311 H   0  0  0  0  0  0  0  0  0  0  0  0
   28.0677   42.9235    2.5068 H   0  0  0  0  0  0  0  0  0  0  0  0
   26.9651   42.1293    4.5101 H   0  0  0  0  0  0  0  0  0  0  0  0
   25.8056   39.9378    4.3555 H   0  0  0  0  0  0  0  0  0  0  0  0
   26.1227   39.8075    2.6465 H   0  0  0  0  0  0  0  0  0  0  0  0
   20.2825   40.8574    7.4646 H   0  0  0  0  0  0  0  0  0  0  0  0
   16.5083   39.3864    4.5978 H   0  0  0  0  0  0  0  0  0  0  0  0
   18.7696   39.6318    3.6213 H   0  0  0  0  0  0  0  0  0  0  0  0
   20.3446   42.0389    3.6350 H   0  0  0  0  0  0  0  0  0  0  0  0
   21.3659   38.3670    6.6998 H   0  0  0  0  0  0  0  0  0  0  0  0
   23.0771   38.1169    6.4362 H   0  0  0  0  0  0  0  0  0  0  0  0
   25.4108   44.4881    0.5352 H   0  0  0  0  0  0  0  0  0  0  0  0
   26.4065   43.1229   -0.0244 H   0  0  0  0  0  0  0  0  0  0  0  0
   27.1699   44.4995    0.8065 H   0  0  0  0  0  0  0  0  0  0  0  0
   28.2786   40.1123    4.7662 H   0  0  0  0  0  0  0  0  0  0  0  0
   29.2169   41.4157    3.9988 H   0  0  0  0  0  0  0  0  0  0  0  0
   28.5813   40.0771    3.0126 H   0  0  0  0  0  0  0  0  0  0  0  0
   27.3995   41.7038    1.6361 H   0  0  0  0  0  0  0  0  0  0  0  0
  1  2  1  0  0  0  0
  1  6  1  0  0  0  0
  1 16  1  0  0  0  0
  2  3  1  0  0  0  0
  2 24  1  0  0  0  0
  2 25  1  0  0  0  0
  3  4  1  0  0  0  0
  3 21  1  0  0  0  0
  3 26  1  1  0  0  0
  4  5  1  0  0  0  0
  4 27  1  0  0  0  0
  4 43  1  0  0  0  0
  5  6  1  0  0  0  0
  5 22  1  0  0  0  0
  5 28  1  1  0  0  0
  6 29  1  0  0  0  0
  6 30  1  0  0  0  0
  7  8  2  0  0  0  0
  7 12  1  0  0  0  0
  7 13  1  0  0  0  0
  8  9  1  0  0  0  0
  8 31  1  0  0  0  0
  9 10  2  0  0  0  0
  9 19  1  0  0  0  0
 10 11  1  0  0  0  0
 10 23  1  0  0  0  0
 11 12  2  0  0  0  0
 11 32  1  0  0  0  0
 12 33  1  0  0  0  0
 13 14  2  0  0  0  0
 13 18  1  0  0  0  0
 14 15  1  0  0  0  0
 14 34  1  0  0  0  0
 15 16  2  0  0  0  0
 16 17  1  0  0  0  0
 17 18  2  0  0  0  0
 18 20  1  0  0  0  0
 20 35  1  0  0  0  0
 20 36  1  0  0  0  0
 21 37  1  0  0  0  0
 21 38  1  0  0  0  0
 21 39  1  0  0  0  0
 22 40  1  0  0  0  0
 22 41  1  0  0  0  0
 22 42  1  0  0  0  0
M  CHG  1   4   1
M  END
>  <ID>
4

>  <IC50 uM>
54

$$$$
