@<TRIPOS>MOLECULE
6
 40 42 0 0 0
SMALL
GASTEIGER
****
Structure written by MMmdl.
@<TRIPOS>ATOM
      1 N          24.5492   41.4103    2.9581 N.pl3   1  LIG1       -0.2992
      2 C          24.8206   42.5674    2.0917 C.3     1  LIG1        0.0200
      3 C          25.9010   43.4845    2.7073 C.3     1  LIG1        0.0061
      4 C          27.2006   42.7197    3.0160 C.3     1  LIG1       -0.0215
      5 C          26.8994   41.4031    3.7428 C.3     1  LIG1        0.0061
      6 C          25.7707   40.5926    3.0746 C.3     1  LIG1        0.0200
      7 C          19.6801   40.5131    5.5639 C.ar    1  LIG1        0.0066
      8 C          19.3880   40.8059    6.9100 C.ar    1  LIG1        0.0671
      9 C          18.0896   40.6058    7.4051 C.ar    1  LIG1        0.0598
     10 C          17.0975   40.0865    6.5706 C.ar    1  LIG1       -0.0419
     11 C          17.3885   39.7774    5.2446 C.ar    1  LIG1       -0.0597
     12 C          18.6614   40.0160    4.7431 C.ar    1  LIG1       -0.0524
     13 C          20.9975   40.7599    4.9628 C.ar    1  LIG1        0.0413
     14 C          21.1772   41.8132    4.0533 C.ar    1  LIG1        0.0422
     15 N          22.3346   42.0475    3.4126 N.ar    1  LIG1       -0.2220
     16 C          23.3734   41.2177    3.6872 C.ar    1  LIG1        0.2195
     17 N          23.3126   40.1834    4.5784 N.ar    1  LIG1       -0.1992
     18 C          22.1341   39.9630    5.2013 C.ar    1  LIG1        0.1291
     19 CL         17.6784   41.0592    9.0215 Cl      1  LIG1       -0.0820
     20 CL         20.6099   41.5010    7.9303 Cl      1  LIG1       -0.0814
     21 N          22.0817   38.8852    6.0763 N.pl3   1  LIG1       -0.3425
     22 N          28.0958   43.6100    3.9243 N.4     1  LIG1        0.2208
     23 H          23.9362   43.1801    1.9134 H       1  LIG1        0.0466
     24 H          25.1411   42.2139    1.1097 H       1  LIG1        0.0466
     25 H          26.1018   44.3579    2.0849 H       1  LIG1        0.0335
     26 H          25.4758   43.9149    3.6140 H       1  LIG1        0.0335
     27 H          27.8085   40.8158    3.8859 H       1  LIG1        0.0335
     28 H          26.5566   41.6353    4.7463 H       1  LIG1        0.0335
     29 H          25.6109   39.6728    3.6282 H       1  LIG1        0.0466
     30 H          26.0829   40.2916    2.0753 H       1  LIG1        0.0466
     31 H          16.0828   39.9773    6.9300 H       1  LIG1        0.0633
     32 H          16.6300   39.3918    4.5807 H       1  LIG1        0.0618
     33 H          18.8719   39.7811    3.7086 H       1  LIG1        0.0624
     34 H          28.2559   44.4914    3.4401 H       1  LIG1        0.1997
     35 H          27.6465   43.8153    4.7999 H       1  LIG1        0.1997
     36 H          22.9510   38.4014    6.2942 H       1  LIG1        0.1437
     37 H          20.3640   42.4825    3.8394 H       1  LIG1        0.0838
     38 H          27.6753   42.4671    2.0654 H       1  LIG1        0.0851
     39 H          21.2504   38.7041    6.6087 H       1  LIG1        0.1437
     40 H          28.9838   43.1729    4.1119 H       1  LIG1        0.1997
@<TRIPOS>BOND
     1     1     2    1
     2     1     6    1
     3     1    16    1
     4     2     3    1
     5     2    23    1
     6     2    24    1
     7     3     4    1
     8     3    25    1
     9     3    26    1
    10     4     5    1
    11     4    22    1
    12     4    38    1
    13     5     6    1
    14     5    27    1
    15     5    28    1
    16     6    29    1
    17     6    30    1
    18     7     8   ar
    19     7    12   ar
    20     7    13    1
    21     8     9   ar
    22     8    20    1
    23     9    10   ar
    24     9    19    1
    25    10    11   ar
    26    10    31    1
    27    11    12   ar
    28    11    32    1
    29    12    33    1
    30    13    14   ar
    31    13    18   ar
    32    14    15   ar
    33    14    37    1
    34    15    16   ar
    35    16    17   ar
    36    17    18   ar
    37    18    21    1
    38    21    36    1
    39    21    39    1
    40    22    34    1
    41    22    35    1
    42    22    40    1
