6
 OpenBabel02152110423D
Structure written by MMmdl.
 40 42  0  0  1  0  0  0  0  0999 V2000
   24.5492   41.4103    2.9581 N   0  0  0  0  0  0  0  0  0  0  0  0
   24.8206   42.5674    2.0917 C   0  0  0  0  0  0  0  0  0  0  0  0
   25.9010   43.4845    2.7073 C   0  0  0  0  0  0  0  0  0  0  0  0
   27.2006   42.7197    3.0160 C   0  0  0  0  0  0  0  0  0  0  0  0
   26.8994   41.4031    3.7428 C   0  0  0  0  0  0  0  0  0  0  0  0
   25.7707   40.5926    3.0746 C   0  0  0  0  0  0  0  0  0  0  0  0
   19.6801   40.5131    5.5639 C   0  0  0  0  0  0  0  0  0  0  0  0
   19.3880   40.8059    6.9100 C   0  0  0  0  0  0  0  0  0  0  0  0
   18.0896   40.6058    7.4051 C   0  0  0  0  0  0  0  0  0  0  0  0
   17.0975   40.0865    6.5706 C   0  0  0  0  0  0  0  0  0  0  0  0
   17.3885   39.7774    5.2446 C   0  0  0  0  0  0  0  0  0  0  0  0
   18.6614   40.0160    4.7431 C   0  0  0  0  0  0  0  0  0  0  0  0
   20.9975   40.7599    4.9628 C   0  0  0  0  0  0  0  0  0  0  0  0
   21.1772   41.8132    4.0533 C   0  0  0  0  0  0  0  0  0  0  0  0
   22.3346   42.0475    3.4126 N   0  0  0  0  0  0  0  0  0  0  0  0
   23.3734   41.2177    3.6872 C   0  0  0  0  0  0  0  0  0  0  0  0
   23.3126   40.1834    4.5784 N   0  0  0  0  0  0  0  0  0  0  0  0
   22.1341   39.9630    5.2013 C   0  0  0  0  0  0  0  0  0  0  0  0
   17.6784   41.0592    9.0215 Cl  0  0  0  0  0  0  0  0  0  0  0  0
   20.6099   41.5010    7.9303 Cl  0  0  0  0  0  0  0  0  0  0  0  0
   22.0817   38.8852    6.0763 N   0  0  0  0  0  0  0  0  0  0  0  0
   28.0958   43.6100    3.9243 N   0  3  0  0  0  0  0  0  0  0  0  0
   23.9362   43.1801    1.9134 H   0  0  0  0  0  0  0  0  0  0  0  0
   25.1411   42.2139    1.1097 H   0  0  0  0  0  0  0  0  0  0  0  0
   26.1018   44.3579    2.0849 H   0  0  0  0  0  0  0  0  0  0  0  0
   25.4758   43.9149    3.6140 H   0  0  0  0  0  0  0  0  0  0  0  0
   27.8085   40.8158    3.8859 H   0  0  0  0  0  0  0  0  0  0  0  0
   26.5566   41.6353    4.7463 H   0  0  0  0  0  0  0  0  0  0  0  0
   25.6109   39.6728    3.6282 H   0  0  0  0  0  0  0  0  0  0  0  0
   26.0829   40.2916    2.0753 H   0  0  0  0  0  0  0  0  0  0  0  0
   16.0828   39.9773    6.9300 H   0  0  0  0  0  0  0  0  0  0  0  0
   16.6300   39.3918    4.5807 H   0  0  0  0  0  0  0  0  0  0  0  0
   18.8719   39.7811    3.7086 H   0  0  0  0  0  0  0  0  0  0  0  0
   28.2559   44.4914    3.4401 H   0  0  0  0  0  0  0  0  0  0  0  0
   27.6465   43.8153    4.7999 H   0  0  0  0  0  0  0  0  0  0  0  0
   22.9510   38.4014    6.2942 H   0  0  0  0  0  0  0  0  0  0  0  0
   20.3640   42.4825    3.8394 H   0  0  0  0  0  0  0  0  0  0  0  0
   27.6753   42.4671    2.0654 H   0  0  0  0  0  0  0  0  0  0  0  0
   21.2504   38.7041    6.6087 H   0  0  0  0  0  0  0  0  0  0  0  0
   28.9838   43.1729    4.1119 H   0  0  0  0  0  0  0  0  0  0  0  0
  1  2  1  0  0  0  0
  1  6  1  0  0  0  0
  1 16  1  0  0  0  0
  2  3  1  0  0  0  0
  2 23  1  0  0  0  0
  2 24  1  0  0  0  0
  3  4  1  0  0  0  0
  3 25  1  0  0  0  0
  3 26  1  0  0  0  0
  4  5  1  0  0  0  0
  4 22  1  0  0  0  0
  4 38  1  0  0  0  0
  5  6  1  0  0  0  0
  5 27  1  0  0  0  0
  5 28  1  0  0  0  0
  6 29  1  0  0  0  0
  6 30  1  0  0  0  0
  7  8  2  0  0  0  0
  7 12  1  0  0  0  0
  7 13  1  0  0  0  0
  8  9  1  0  0  0  0
  8 20  1  0  0  0  0
  9 10  2  0  0  0  0
  9 19  1  0  0  0  0
 10 11  1  0  0  0  0
 10 31  1  0  0  0  0
 11 12  2  0  0  0  0
 11 32  1  0  0  0  0
 12 33  1  0  0  0  0
 13 14  2  0  0  0  0
 13 18  1  0  0  0  0
 14 15  1  0  0  0  0
 14 37  1  0  0  0  0
 15 16  2  0  0  0  0
 16 17  1  0  0  0  0
 17 18  2  0  0  0  0
 18 21  1  0  0  0  0
 21 36  1  0  0  0  0
 21 39  1  0  0  0  0
 22 34  1  0  0  0  0
 22 35  1  0  0  0  0
 22 40  1  0  0  0  0
M  CHG  1  22   1
M  END
>  <ID>
6

>  <IC50 uM>
1.3

$$$$
