@<TRIPOS>MOLECULE
7
 46 48 0 0 0
SMALL
GASTEIGER
****
Structure written by MMmdl.
@<TRIPOS>ATOM
      1 N          24.5492   41.4103    2.9581 N.pl3   1  LIG1       -0.2992
      2 C          25.7707   40.5926    3.0746 C.3     1  LIG1        0.0200
      3 C          26.8994   41.4031    3.7428 C.3     1  LIG1        0.0062
      4 C          27.2006   42.7197    3.0160 C.3     1  LIG1       -0.0185
      5 C          25.9010   43.4845    2.7073 C.3     1  LIG1        0.0062
      6 C          24.8206   42.5674    2.0917 C.3     1  LIG1        0.0200
      7 C          19.6801   40.5131    5.5639 C.ar    1  LIG1        0.0066
      8 C          19.3880   40.8059    6.9100 C.ar    1  LIG1        0.0671
      9 C          18.0896   40.6058    7.4051 C.ar    1  LIG1        0.0598
     10 C          17.0975   40.0865    6.5706 C.ar    1  LIG1       -0.0419
     11 C          17.3885   39.7774    5.2446 C.ar    1  LIG1       -0.0597
     12 C          18.6614   40.0160    4.7431 C.ar    1  LIG1       -0.0524
     13 C          20.9975   40.7599    4.9628 C.ar    1  LIG1        0.0413
     14 C          21.1772   41.8132    4.0533 C.ar    1  LIG1        0.0422
     15 N          22.3346   42.0475    3.4126 N.ar    1  LIG1       -0.2220
     16 C          23.3734   41.2177    3.6872 C.ar    1  LIG1        0.2195
     17 N          23.3126   40.1834    4.5784 N.ar    1  LIG1       -0.1992
     18 C          22.1341   39.9630    5.2013 C.ar    1  LIG1        0.1291
     19 CL         17.6784   41.0592    9.0215 Cl      1  LIG1       -0.0820
     20 CL         20.6099   41.5010    7.9303 Cl      1  LIG1       -0.0814
     21 N          22.0817   38.8852    6.0763 N.pl3   1  LIG1       -0.3425
     22 N          28.0958   43.6100    3.9243 N.4     1  LIG1        0.2331
     23 H          25.5732   39.6852    3.6479 H       1  LIG1        0.0466
     24 H          26.0720   40.2556    2.0817 H       1  LIG1        0.0466
     25 H          27.7967   40.7849    3.8035 H       1  LIG1        0.0335
     26 H          26.5952   41.6002    4.7727 H       1  LIG1        0.0335
     27 H          26.0952   44.3191    2.0316 H       1  LIG1        0.0335
     28 H          25.4862   43.9170    3.6198 H       1  LIG1        0.0335
     29 H          23.9138   43.1446    1.9056 H       1  LIG1        0.0466
     30 H          25.1390   42.2068    1.1124 H       1  LIG1        0.0466
     31 H          16.0996   39.9345    6.9555 H       1  LIG1        0.0633
     32 H          16.6171   39.3786    4.6007 H       1  LIG1        0.0618
     33 H          18.8616   39.7878    3.7051 H       1  LIG1        0.0624
     34 C          29.3435   42.9152    4.2277 C.3     1  LIG1       -0.0431
     35 C          28.4040   44.8645    3.2441 C.3     1  LIG1       -0.0431
     36 H          22.9055   38.3365    6.2631 H       1  LIG1        0.1437
     37 H          20.3577   42.4731    3.8087 H       1  LIG1        0.0838
     38 H          27.7216   42.5033    2.0813 H       1  LIG1        0.0852
     39 H          29.8720   42.6956    3.3001 H       1  LIG1        0.0777
     40 H          29.1231   41.9839    4.7495 H       1  LIG1        0.0777
     41 H          29.9668   43.5472    4.8602 H       1  LIG1        0.0777
     42 H          28.9282   44.6532    2.3120 H       1  LIG1        0.0777
     43 H          29.0359   45.4796    3.8848 H       1  LIG1        0.0777
     44 H          27.4782   45.3974    3.0274 H       1  LIG1        0.0777
     45 H          27.6101   43.8110    4.7875 H       1  LIG1        0.2030
     46 H          21.2604   38.6952    6.6292 H       1  LIG1        0.1437
@<TRIPOS>BOND
     1     1     2    1
     2     1     6    1
     3     1    16    1
     4     2     3    1
     5     2    23    1
     6     2    24    1
     7     3     4    1
     8     3    25    1
     9     3    26    1
    10     4     5    1
    11     4    22    1
    12     4    38    1
    13     5     6    1
    14     5    27    1
    15     5    28    1
    16     6    29    1
    17     6    30    1
    18     7     8   ar
    19     7    12   ar
    20     7    13    1
    21     8     9   ar
    22     8    20    1
    23     9    10   ar
    24     9    19    1
    25    10    11   ar
    26    10    31    1
    27    11    12   ar
    28    11    32    1
    29    12    33    1
    30    13    14   ar
    31    13    18   ar
    32    14    15   ar
    33    14    37    1
    34    15    16   ar
    35    16    17   ar
    36    17    18   ar
    37    18    21    1
    38    21    36    1
    39    21    46    1
    40    22    34    1
    41    22    35    1
    42    22    45    1
    43    34    39    1
    44    34    40    1
    45    34    41    1
    46    35    42    1
    47    35    43    1
    48    35    44    1
