7
 OpenBabel02152110423D
Structure written by MMmdl.
 46 48  0  0  1  0  0  0  0  0999 V2000
   24.5492   41.4103    2.9581 N   0  0  0  0  0  0  0  0  0  0  0  0
   25.7707   40.5926    3.0746 C   0  0  0  0  0  0  0  0  0  0  0  0
   26.8994   41.4031    3.7428 C   0  0  0  0  0  0  0  0  0  0  0  0
   27.2006   42.7197    3.0160 C   0  0  0  0  0  0  0  0  0  0  0  0
   25.9010   43.4845    2.7073 C   0  0  0  0  0  0  0  0  0  0  0  0
   24.8206   42.5674    2.0917 C   0  0  0  0  0  0  0  0  0  0  0  0
   19.6801   40.5131    5.5639 C   0  0  0  0  0  0  0  0  0  0  0  0
   19.3880   40.8059    6.9100 C   0  0  0  0  0  0  0  0  0  0  0  0
   18.0896   40.6058    7.4051 C   0  0  0  0  0  0  0  0  0  0  0  0
   17.0975   40.0865    6.5706 C   0  0  0  0  0  0  0  0  0  0  0  0
   17.3885   39.7774    5.2446 C   0  0  0  0  0  0  0  0  0  0  0  0
   18.6614   40.0160    4.7431 C   0  0  0  0  0  0  0  0  0  0  0  0
   20.9975   40.7599    4.9628 C   0  0  0  0  0  0  0  0  0  0  0  0
   21.1772   41.8132    4.0533 C   0  0  0  0  0  0  0  0  0  0  0  0
   22.3346   42.0475    3.4126 N   0  0  0  0  0  0  0  0  0  0  0  0
   23.3734   41.2177    3.6872 C   0  0  0  0  0  0  0  0  0  0  0  0
   23.3126   40.1834    4.5784 N   0  0  0  0  0  0  0  0  0  0  0  0
   22.1341   39.9630    5.2013 C   0  0  0  0  0  0  0  0  0  0  0  0
   17.6784   41.0592    9.0215 Cl  0  0  0  0  0  0  0  0  0  0  0  0
   20.6099   41.5010    7.9303 Cl  0  0  0  0  0  0  0  0  0  0  0  0
   22.0817   38.8852    6.0763 N   0  0  0  0  0  0  0  0  0  0  0  0
   28.0958   43.6100    3.9243 N   0  3  0  0  0  0  0  0  0  0  0  0
   25.5732   39.6852    3.6479 H   0  0  0  0  0  0  0  0  0  0  0  0
   26.0720   40.2556    2.0817 H   0  0  0  0  0  0  0  0  0  0  0  0
   27.7967   40.7849    3.8035 H   0  0  0  0  0  0  0  0  0  0  0  0
   26.5952   41.6002    4.7727 H   0  0  0  0  0  0  0  0  0  0  0  0
   26.0952   44.3191    2.0316 H   0  0  0  0  0  0  0  0  0  0  0  0
   25.4862   43.9170    3.6198 H   0  0  0  0  0  0  0  0  0  0  0  0
   23.9138   43.1446    1.9056 H   0  0  0  0  0  0  0  0  0  0  0  0
   25.1390   42.2068    1.1124 H   0  0  0  0  0  0  0  0  0  0  0  0
   16.0996   39.9345    6.9555 H   0  0  0  0  0  0  0  0  0  0  0  0
   16.6171   39.3786    4.6007 H   0  0  0  0  0  0  0  0  0  0  0  0
   18.8616   39.7878    3.7051 H   0  0  0  0  0  0  0  0  0  0  0  0
   29.3435   42.9152    4.2277 C   0  0  0  0  0  0  0  0  0  0  0  0
   28.4040   44.8645    3.2441 C   0  0  0  0  0  0  0  0  0  0  0  0
   22.9055   38.3365    6.2631 H   0  0  0  0  0  0  0  0  0  0  0  0
   20.3577   42.4731    3.8087 H   0  0  0  0  0  0  0  0  0  0  0  0
   27.7216   42.5033    2.0813 H   0  0  0  0  0  0  0  0  0  0  0  0
   29.8720   42.6956    3.3001 H   0  0  0  0  0  0  0  0  0  0  0  0
   29.1231   41.9839    4.7495 H   0  0  0  0  0  0  0  0  0  0  0  0
   29.9668   43.5472    4.8602 H   0  0  0  0  0  0  0  0  0  0  0  0
   28.9282   44.6532    2.3120 H   0  0  0  0  0  0  0  0  0  0  0  0
   29.0359   45.4796    3.8848 H   0  0  0  0  0  0  0  0  0  0  0  0
   27.4782   45.3974    3.0274 H   0  0  0  0  0  0  0  0  0  0  0  0
   27.6101   43.8110    4.7875 H   0  0  0  0  0  0  0  0  0  0  0  0
   21.2604   38.6952    6.6292 H   0  0  0  0  0  0  0  0  0  0  0  0
  1  2  1  0  0  0  0
  1  6  1  0  0  0  0
  1 16  1  0  0  0  0
  2  3  1  0  0  0  0
  2 23  1  0  0  0  0
  2 24  1  0  0  0  0
  3  4  1  0  0  0  0
  3 25  1  0  0  0  0
  3 26  1  0  0  0  0
  4  5  1  0  0  0  0
  4 22  1  0  0  0  0
  4 38  1  0  0  0  0
  5  6  1  0  0  0  0
  5 27  1  0  0  0  0
  5 28  1  0  0  0  0
  6 29  1  0  0  0  0
  6 30  1  0  0  0  0
  7  8  2  0  0  0  0
  7 12  1  0  0  0  0
  7 13  1  0  0  0  0
  8  9  1  0  0  0  0
  8 20  1  0  0  0  0
  9 10  2  0  0  0  0
  9 19  1  0  0  0  0
 10 11  1  0  0  0  0
 10 31  1  0  0  0  0
 11 12  2  0  0  0  0
 11 32  1  0  0  0  0
 12 33  1  0  0  0  0
 13 14  2  0  0  0  0
 13 18  1  0  0  0  0
 14 15  1  0  0  0  0
 14 37  1  0  0  0  0
 15 16  2  0  0  0  0
 16 17  1  0  0  0  0
 17 18  2  0  0  0  0
 18 21  1  0  0  0  0
 21 36  1  0  0  0  0
 21 46  1  0  0  0  0
 22 34  1  0  0  0  0
 22 35  1  0  0  0  0
 22 45  1  0  0  0  0
 34 39  1  0  0  0  0
 34 40  1  0  0  0  0
 34 41  1  0  0  0  0
 35 42  1  0  0  0  0
 35 43  1  0  0  0  0
 35 44  1  0  0  0  0
M  CHG  1  22   1
M  END
>  <ID>
7

>  <IC50 uM>
6.5

$$$$
