@<TRIPOS>MOLECULE
Example 8
 46 48 0 0 0
SMALL
GASTEIGER
****
Structure written by MMmdl.
@<TRIPOS>ATOM
      1 N          24.5594   41.3986    2.9317 N.pl3   1  LIG1       -0.3139
      2 C          25.7611   40.5558    3.0894 C.3     1  LIG1        0.0142
      3 C          26.8712   41.3609    3.7612 C.3     1  LIG1       -0.0269
      4 C          27.2234   42.6835    3.0209 C.3     1  LIG1        0.0107
      5 C          25.8987   43.4737    2.7315 C.3     1  LIG1       -0.0269
      6 C          24.8053   42.5917    2.0987 C.3     1  LIG1        0.0142
      7 C          19.6880   40.5151    5.5295 C.ar    1  LIG1        0.0234
      8 C          19.3970   40.8120    6.8734 C.ar    1  LIG1        0.0685
      9 C          18.0969   40.6099    7.3595 C.ar    1  LIG1        0.0599
     10 C          17.1044   40.1134    6.5151 C.ar    1  LIG1       -0.0419
     11 C          17.3955   39.8141    5.1884 C.ar    1  LIG1       -0.0597
     12 C          18.6784   40.0224    4.6979 C.ar    1  LIG1       -0.0510
     13 C          21.0311   40.7308    4.9444 C.ar    1  LIG1        0.1119
     14 N          21.0849   41.7512    4.0542 N.ar    1  LIG1       -0.2481
     15 C          22.2536   41.9949    3.4287 C.ar    1  LIG1        0.0683
     16 C          23.3876   41.2120    3.6562 C.ar    1  LIG1        0.1417
     17 N          23.3295   40.1869    4.5597 N.ar    1  LIG1       -0.2140
     18 C          22.1602   39.9463    5.2058 C.ar    1  LIG1        0.1445
     19 CL         17.6785   40.9865    8.9940 Cl      1  LIG1       -0.0820
     20 CL         20.6272   41.4363    7.9277 Cl      1  LIG1       -0.0814
     21 N          22.1325   38.8841    6.1087 N.pl3   1  LIG1       -0.3414
     22 C          28.1713   43.4659    3.9245 C.3     1  LIG1       -0.0298
     23 C          27.9599   42.4153    1.7087 C.3     1  LIG1       -0.0546
     24 H          25.5418   39.6858    3.7105 H       1  LIG1        0.0464
     25 H          26.1035   40.1645    2.1335 H       1  LIG1        0.0464
     26 H          27.7839   40.7770    3.8765 H       1  LIG1        0.0287
     27 H          26.5428   41.5457    4.7791 H       1  LIG1        0.0287
     28 H          26.0922   44.3272    2.0734 H       1  LIG1        0.0287
     29 H          25.4755   43.9389    3.6240 H       1  LIG1        0.0287
     30 H          23.9086   43.1927    1.9970 H       1  LIG1        0.0464
     31 H          25.0548   42.3035    1.0774 H       1  LIG1        0.0464
     32 H          16.0979   39.9774    6.8828 H       1  LIG1        0.0633
     33 H          18.8869   39.7946    3.6591 H       1  LIG1        0.0625
     34 H          22.2197   42.8194    2.7371 H       1  LIG1        0.0865
     35 H          22.9863   38.3608    6.2905 H       1  LIG1        0.1438
     36 H          21.2877   38.6934    6.6244 H       1  LIG1        0.1438
     37 H          27.3855   41.8135    1.0137 H       1  LIG1        0.0237
     38 H          28.8919   41.8903    1.9260 H       1  LIG1        0.0237
     39 H          28.2305   43.3531    1.2163 H       1  LIG1        0.0237
     40 H          16.6291   39.4353    4.5313 H       1  LIG1        0.0618
     41 H          29.2219   43.1499    3.9643 H       1  LIG1        0.0818
     42 N          27.6581   43.5644    5.3258 N.4     1  LIG1        0.2189
     43 H          28.1411   44.4660    3.7490 H       1  LIG1        0.0818
     44 H          28.3153   44.1625    5.8628 H       1  LIG1        0.1994
     45 H          26.7496   43.9973    5.3977 H       1  LIG1        0.1994
     46 H          27.6704   42.6729    5.7808 H       1  LIG1        0.1994
@<TRIPOS>BOND
     1     1     2    1
     2     1     6    1
     3     1    16    1
     4     2     3    1
     5     2    24    1
     6     2    25    1
     7     3     4    1
     8     3    26    1
     9     3    27    1
    10     4     5    1
    11     4    22    1
    12     4    23    1
    13     5     6    1
    14     5    28    1
    15     5    29    1
    16     6    30    1
    17     6    31    1
    18     7     8   ar
    19     7    12   ar
    20     7    13    1
    21     8     9   ar
    22     8    20    1
    23     9    10   ar
    24     9    19    1
    25    10    11   ar
    26    10    32    1
    27    11    12   ar
    28    11    40    1
    29    12    33    1
    30    13    14   ar
    31    13    18   ar
    32    14    15   ar
    33    15    16   ar
    34    15    34    1
    35    16    17   ar
    36    17    18   ar
    37    18    21    1
    38    21    35    1
    39    21    36    1
    40    22    41    1
    41    22    42    1
    42    22    43    1
    43    23    37    1
    44    23    38    1
    45    23    39    1
    46    42    44    1
    47    42    45    1
    48    42    46    1
