Example 25
 OpenBabel02152110423D
Structure written by MMmdl.
 44 46  0  0  1  0  0  0  0  0999 V2000
   24.7929   41.5142    3.1477 N   0  0  0  0  0  0  0  0  0  0  0  0
   25.8344   40.4760    3.0612 C   0  0  0  0  0  0  0  0  0  0  0  0
   27.1748   40.9732    3.6511 C   0  0  0  0  0  0  0  0  0  0  0  0
   27.7037   42.2764    2.9922 C   0  0  0  0  0  0  0  0  0  0  0  0
   26.5450   43.2287    2.5702 C   0  0  0  0  0  0  0  0  0  0  0  0
   25.1808   42.5876    2.2240 C   0  0  0  0  0  0  0  0  0  0  0  0
   19.8262   40.5700    5.6738 C   0  0  0  0  0  0  0  0  0  0  0  0
   19.5917   40.8481    7.0366 C   0  0  0  0  0  0  0  0  0  0  0  0
   18.3265   40.5734    7.5966 C   0  0  0  0  0  0  0  0  0  0  0  0
   17.3166   40.0191    6.8151 C   0  0  0  0  0  0  0  0  0  0  0  0
   17.5480   39.7348    5.4706 C   0  0  0  0  0  0  0  0  0  0  0  0
   18.7902   40.0223    4.9119 C   0  0  0  0  0  0  0  0  0  0  0  0
   21.1469   40.7953    5.0104 C   0  0  0  0  0  0  0  0  0  0  0  0
   21.1477   41.7025    4.0132 N   0  0  0  0  0  0  0  0  0  0  0  0
   22.2993   41.9387    3.3328 C   0  0  0  0  0  0  0  0  0  0  0  0
   23.5053   41.2696    3.6590 C   0  0  0  0  0  0  0  0  0  0  0  0
   23.4706   40.3379    4.6584 N   0  0  0  0  0  0  0  0  0  0  0  0
   22.3243   40.0948    5.3241 C   0  0  0  0  0  0  0  0  0  0  0  0
   17.9779   40.9265    9.2500 Cl  0  0  0  0  0  0  0  0  0  0  0  0
   20.8097   41.6023    8.0169 Cl  0  0  0  0  0  0  0  0  0  0  0  0
   22.3429   39.1348    6.3276 N   0  0  0  0  0  0  0  0  0  0  0  0
   28.3987   41.8105    1.6993 C   0  0  0  0  0  0  0  0  0  0  0  0
   28.7321   42.9896    3.7652 N   0  3  0  0  0  0  0  0  0  0  0  0
   22.0782   42.8210    2.2061 C   0  0  0  0  0  0  0  0  0  0  0  0
   21.8991   43.5262    1.2952 N   0  0  0  0  0  0  0  0  0  0  0  0
   25.5368   39.5615    3.5507 H   0  0  0  0  0  0  0  0  0  0  0  0
   25.9715   40.1872    2.0179 H   0  0  0  0  0  0  0  0  0  0  0  0
   27.8971   40.1658    3.5581 H   0  0  0  0  0  0  0  0  0  0  0  0
   27.0447   41.1141    4.7328 H   0  0  0  0  0  0  0  0  0  0  0  0
   26.8505   43.8540    1.7352 H   0  0  0  0  0  0  0  0  0  0  0  0
   26.3764   43.9599    3.3678 H   0  0  0  0  0  0  0  0  0  0  0  0
   24.4947   43.4179    2.3116 H   0  0  0  0  0  0  0  0  0  0  0  0
   25.1317   42.2639    1.1822 H   0  0  0  0  0  0  0  0  0  0  0  0
   16.3537   39.7954    7.2470 H   0  0  0  0  0  0  0  0  0  0  0  0
   16.7707   39.2857    4.8626 H   0  0  0  0  0  0  0  0  0  0  0  0
   18.9498   39.7782    3.8664 H   0  0  0  0  0  0  0  0  0  0  0  0
   21.4774   38.9007    6.7877 H   0  0  0  0  0  0  0  0  0  0  0  0
   23.1967   38.6071    6.5093 H   0  0  0  0  0  0  0  0  0  0  0  0
   28.8686   42.5474    1.0313 H   0  0  0  0  0  0  0  0  0  0  0  0
   27.7017   41.2032    1.1219 H   0  0  0  0  0  0  0  0  0  0  0  0
   29.1298   41.0412    1.9479 H   0  0  0  0  0  0  0  0  0  0  0  0
   29.0157   43.8194    3.2640 H   0  0  0  0  0  0  0  0  0  0  0  0
   28.3558   43.2524    4.6649 H   0  0  0  0  0  0  0  0  0  0  0  0
   29.5317   42.3870    3.8979 H   0  0  0  0  0  0  0  0  0  0  0  0
  1  2  1  0  0  0  0
  1  6  1  0  0  0  0
  1 16  1  0  0  0  0
  2  3  1  0  0  0  0
  2 26  1  0  0  0  0
  2 27  1  0  0  0  0
  3  4  1  0  0  0  0
  3 28  1  0  0  0  0
  3 29  1  0  0  0  0
  4  5  1  0  0  0  0
  4 22  1  0  0  0  0
  4 23  1  0  0  0  0
  5  6  1  0  0  0  0
  5 30  1  0  0  0  0
  5 31  1  0  0  0  0
  6 32  1  0  0  0  0
  6 33  1  0  0  0  0
  7  8  2  0  0  0  0
  7 12  1  0  0  0  0
  7 13  1  0  0  0  0
  8  9  1  0  0  0  0
  8 20  1  0  0  0  0
  9 10  2  0  0  0  0
  9 19  1  0  0  0  0
 10 11  1  0  0  0  0
 10 34  1  0  0  0  0
 11 12  2  0  0  0  0
 11 35  1  0  0  0  0
 12 36  1  0  0  0  0
 13 14  2  0  0  0  0
 13 18  1  0  0  0  0
 14 15  1  0  0  0  0
 15 16  2  0  0  0  0
 15 24  1  0  0  0  0
 16 17  1  0  0  0  0
 17 18  2  0  0  0  0
 18 21  1  0  0  0  0
 21 37  1  0  0  0  0
 21 38  1  0  0  0  0
 22 39  1  0  0  0  0
 22 40  1  0  0  0  0
 22 41  1  0  0  0  0
 23 42  1  0  0  0  0
 23 43  1  0  0  0  0
 23 44  1  0  0  0  0
 24 25  3  0  0  0  0
M  CHG  1  23   1
M  END
>  <ID>
Example 25

>  <IC50 uM>
0.315

$$$$
