@<TRIPOS>MOLECULE
Example 25
 44 46 0 0 0
SMALL
GASTEIGER
****
Structure written by MMmdl.
@<TRIPOS>ATOM
      1 N          24.7929   41.5142    3.1477 N.pl3   1  LIG1       -0.3125
      2 C          25.8344   40.4760    3.0612 C.3     1  LIG1        0.0189
      3 C          27.1748   40.9732    3.6511 C.3     1  LIG1        0.0086
      4 C          27.7037   42.2764    2.9922 C.3     1  LIG1       -0.0135
      5 C          26.5450   43.2287    2.5702 C.3     1  LIG1        0.0086
      6 C          25.1808   42.5876    2.2240 C.3     1  LIG1        0.0189
      7 C          19.8262   40.5700    5.6738 C.ar    1  LIG1        0.0235
      8 C          19.5917   40.8481    7.0366 C.ar    1  LIG1        0.0685
      9 C          18.3265   40.5734    7.5966 C.ar    1  LIG1        0.0599
     10 C          17.3166   40.0191    6.8151 C.ar    1  LIG1       -0.0419
     11 C          17.5480   39.7348    5.4706 C.ar    1  LIG1       -0.0597
     12 C          18.7902   40.0223    4.9119 C.ar    1  LIG1       -0.0510
     13 C          21.1469   40.7953    5.0104 C.ar    1  LIG1        0.1134
     14 N          21.1477   41.7025    4.0132 N.ar    1  LIG1       -0.2295
     15 C          22.2993   41.9387    3.3328 C.ar    1  LIG1        0.1806
     16 C          23.5053   41.2696    3.6590 C.ar    1  LIG1        0.1596
     17 N          23.4706   40.3379    4.6584 N.ar    1  LIG1       -0.2127
     18 C          22.3243   40.0948    5.3241 C.ar    1  LIG1        0.1446
     19 CL         17.9779   40.9265    9.2500 Cl      1  LIG1       -0.0820
     20 CL         20.8097   41.6023    8.0169 Cl      1  LIG1       -0.0814
     21 N          22.3429   39.1348    6.3276 N.pl3   1  LIG1       -0.3414
     22 C          28.3987   41.8105    1.6993 C.3     1  LIG1       -0.0187
     23 N          28.7321   42.9896    3.7652 N.4     1  LIG1        0.2228
     24 C          22.0782   42.8210    2.2061 C.1     1  LIG1        0.1227
     25 N          21.8991   43.5262    1.2952 N.1     1  LIG1       -0.1892
     26 H          25.5368   39.5615    3.5507 H       1  LIG1        0.0466
     27 H          25.9715   40.1872    2.0179 H       1  LIG1        0.0466
     28 H          27.8971   40.1658    3.5581 H       1  LIG1        0.0338
     29 H          27.0447   41.1141    4.7328 H       1  LIG1        0.0338
     30 H          26.8505   43.8540    1.7352 H       1  LIG1        0.0338
     31 H          26.3764   43.9599    3.3678 H       1  LIG1        0.0338
     32 H          24.4947   43.4179    2.3116 H       1  LIG1        0.0466
     33 H          25.1317   42.2639    1.1822 H       1  LIG1        0.0466
     34 H          16.3537   39.7954    7.2470 H       1  LIG1        0.0633
     35 H          16.7707   39.2857    4.8626 H       1  LIG1        0.0618
     36 H          18.9498   39.7782    3.8664 H       1  LIG1        0.0625
     37 H          21.4774   38.9007    6.7877 H       1  LIG1        0.1438
     38 H          23.1967   38.6071    6.5093 H       1  LIG1        0.1438
     39 H          28.8686   42.5474    1.0313 H       1  LIG1        0.0287
     40 H          27.7017   41.2032    1.1219 H       1  LIG1        0.0287
     41 H          29.1298   41.0412    1.9479 H       1  LIG1        0.0287
     42 H          29.0157   43.8194    3.2640 H       1  LIG1        0.1999
     43 H          28.3558   43.2524    4.6649 H       1  LIG1        0.1999
     44 H          29.5317   42.3870    3.8979 H       1  LIG1        0.1999
@<TRIPOS>BOND
     1     1     2    1
     2     1     6    1
     3     1    16    1
     4     2     3    1
     5     2    26    1
     6     2    27    1
     7     3     4    1
     8     3    28    1
     9     3    29    1
    10     4     5    1
    11     4    22    1
    12     4    23    1
    13     5     6    1
    14     5    30    1
    15     5    31    1
    16     6    32    1
    17     6    33    1
    18     7     8   ar
    19     7    12   ar
    20     7    13    1
    21     8     9   ar
    22     8    20    1
    23     9    10   ar
    24     9    19    1
    25    10    11   ar
    26    10    34    1
    27    11    12   ar
    28    11    35    1
    29    12    36    1
    30    13    14   ar
    31    13    18   ar
    32    14    15   ar
    33    15    16   ar
    34    15    24    1
    35    16    17   ar
    36    17    18   ar
    37    18    21    1
    38    21    37    1
    39    21    38    1
    40    22    39    1
    41    22    40    1
    42    22    41    1
    43    23    42    1
    44    23    43    1
    45    23    44    1
    46    24    25    3
