Example 6
 OpenBabel02152110423D
Structure written by MMmdl.
 44 46  0  0  1  0  0  0  0  0999 V2000
   24.5541   41.4086    2.9391 N   0  0  0  0  0  0  0  0  0  0  0  0
   24.8162   42.5900    2.0939 C   0  0  0  0  0  0  0  0  0  0  0  0
   25.8942   43.4882    2.7380 C   0  0  0  0  0  0  0  0  0  0  0  0
   27.1958   42.7090    3.0142 C   0  0  0  0  0  0  0  0  0  0  0  0
   26.8854   41.4093    3.7822 C   0  0  0  0  0  0  0  0  0  0  0  0
   25.7779   40.5804    3.0987 C   0  0  0  0  0  0  0  0  0  0  0  0
   19.7564   40.5728    5.6014 C   0  0  0  0  0  0  0  0  0  0  0  0
   19.4547   40.9011    6.9415 C   0  0  0  0  0  0  0  0  0  0  0  0
   18.1494   40.6979    7.4298 C   0  0  0  0  0  0  0  0  0  0  0  0
   17.1817   40.1496    6.5987 C   0  0  0  0  0  0  0  0  0  0  0  0
   17.5342   39.8095    5.2908 C   0  0  0  0  0  0  0  0  0  0  0  0
   18.7834   40.0332    4.7935 C   0  0  0  0  0  0  0  0  0  0  0  0
   21.0555   40.7706    4.9811 C   0  0  0  0  0  0  0  0  0  0  0  0
   21.1033   41.7740    4.0767 C   0  0  0  0  0  0  0  0  0  0  0  0
   22.2526   42.0186    3.4385 N   0  0  0  0  0  0  0  0  0  0  0  0
   23.4020   41.2202    3.6592 C   0  0  0  0  0  0  0  0  0  0  0  0
   23.3305   40.2002    4.5650 N   0  0  0  0  0  0  0  0  0  0  0  0
   22.1801   39.9475    5.2152 C   0  0  0  0  0  0  0  0  0  0  0  0
   17.6819   41.1426    9.0368 Cl  0  0  0  0  0  0  0  0  0  0  0  0
   20.6649   41.6022    7.9487 Cl  0  0  0  0  0  0  0  0  0  0  0  0
   22.1235   38.8853    6.1019 N   0  0  0  0  0  0  0  0  0  0  0  0
   28.1023   43.5979    3.8918 N   0  3  0  0  0  0  0  0  0  0  0  0
   27.9589   42.4195    1.7111 C   0  0  0  0  0  0  0  0  0  0  0  0
   25.1155   42.2545    1.1021 H   0  0  0  0  0  0  0  0  0  0  0  0
   23.9209   43.1944    1.9448 H   0  0  0  0  0  0  0  0  0  0  0  0
   25.4809   43.9293    3.6447 H   0  0  0  0  0  0  0  0  0  0  0  0
   26.0877   44.3393    2.0844 H   0  0  0  0  0  0  0  0  0  0  0  0
   26.5544   41.6337    4.7911 H   0  0  0  0  0  0  0  0  0  0  0  0
   27.7848   40.8008    3.9031 H   0  0  0  0  0  0  0  0  0  0  0  0
   26.1017   40.2324    2.1198 H   0  0  0  0  0  0  0  0  0  0  0  0
   25.5813   39.6721    3.6761 H   0  0  0  0  0  0  0  0  0  0  0  0
   16.1633   39.9801    6.9291 H   0  0  0  0  0  0  0  0  0  0  0  0
   16.7880   39.2082    4.4520 O   0  0  0  0  0  0  0  0  0  0  0  0
   18.9577   39.7583    3.7588 H   0  0  0  0  0  0  0  0  0  0  0  0
   22.9880   38.3677    6.2895 H   0  0  0  0  0  0  0  0  0  0  0  0
   21.2815   38.6983    6.6223 H   0  0  0  0  0  0  0  0  0  0  0  0
   28.9810   43.1378    4.0530 H   0  0  0  0  0  0  0  0  0  0  0  0
   27.3552   41.8253    1.0198 H   0  0  0  0  0  0  0  0  0  0  0  0
   28.8716   41.8497    1.8984 H   0  0  0  0  0  0  0  0  0  0  0  0
   28.2274   43.3362    1.1878 H   0  0  0  0  0  0  0  0  0  0  0  0
   28.2606   44.4661    3.3879 H   0  0  0  0  0  0  0  0  0  0  0  0
   15.9304   38.9893    4.9002 H   0  0  0  0  0  0  0  0  0  0  0  0
   27.6643   43.8132    4.7674 H   0  0  0  0  0  0  0  0  0  0  0  0
   20.2212   42.3647    3.8785 H   0  0  0  0  0  0  0  0  0  0  0  0
  1  2  1  0  0  0  0
  1  6  1  0  0  0  0
  1 16  1  0  0  0  0
  2  3  1  0  0  0  0
  2 24  1  0  0  0  0
  2 25  1  0  0  0  0
  3  4  1  0  0  0  0
  3 26  1  0  0  0  0
  3 27  1  0  0  0  0
  4  5  1  0  0  0  0
  4 22  1  0  0  0  0
  4 23  1  0  0  0  0
  5  6  1  0  0  0  0
  5 28  1  0  0  0  0
  5 29  1  0  0  0  0
  6 30  1  0  0  0  0
  6 31  1  0  0  0  0
  7  8  2  0  0  0  0
  7 12  1  0  0  0  0
  7 13  1  0  0  0  0
  8  9  1  0  0  0  0
  8 20  1  0  0  0  0
  9 10  2  0  0  0  0
  9 19  1  0  0  0  0
 10 11  1  0  0  0  0
 10 32  1  0  0  0  0
 11 12  2  0  0  0  0
 11 33  1  0  0  0  0
 12 34  1  0  0  0  0
 13 14  2  0  0  0  0
 13 18  1  0  0  0  0
 14 15  1  0  0  0  0
 14 44  1  0  0  0  0
 15 16  2  0  0  0  0
 16 17  1  0  0  0  0
 17 18  2  0  0  0  0
 18 21  1  0  0  0  0
 21 35  1  0  0  0  0
 21 36  1  0  0  0  0
 22 37  1  0  0  0  0
 22 41  1  0  0  0  0
 22 43  1  0  0  0  0
 23 38  1  0  0  0  0
 23 39  1  0  0  0  0
 23 40  1  0  0  0  0
 33 42  1  0  0  0  0
M  CHG  1  22   1
M  END
>  <ID>
Example 6

>  <IC50 uM>
0.225

$$$$
