@<TRIPOS>MOLECULE
SHP099-1/Example 7
 43 45 0 0 0
SMALL
GASTEIGER
****
Structure written by MMmdl.
@<TRIPOS>ATOM
      1 N          24.5722   41.4017    2.9497 N.pl3   1  LIG1       -0.3135
      2 C          24.8073   42.5904    2.1071 C.3     1  LIG1        0.0189
      3 C          25.8882   43.4955    2.7352 C.3     1  LIG1        0.0086
      4 C          27.1844   42.7081    3.0173 C.3     1  LIG1       -0.0135
      5 C          26.8880   41.4066    3.7995 C.3     1  LIG1        0.0086
      6 C          25.7788   40.5760    3.1172 C.3     1  LIG1        0.0189
      7 C          19.6941   40.5278    5.5181 C.ar    1  LIG1        0.0234
      8 C          19.4037   40.8004    6.8683 C.ar    1  LIG1        0.0685
      9 C          18.1005   40.6055    7.3543 C.ar    1  LIG1        0.0599
     10 C          17.1024   40.1270    6.5070 C.ar    1  LIG1       -0.0419
     11 C          17.3911   39.8460    5.1764 C.ar    1  LIG1       -0.0597
     12 C          18.6755   40.0507    4.6853 C.ar    1  LIG1       -0.0510
     13 C          21.0420   40.7304    4.9310 C.ar    1  LIG1        0.1119
     14 N          21.0963   41.7469    4.0374 N.ar    1  LIG1       -0.2481
     15 C          22.2680   41.9826    3.4209 C.ar    1  LIG1        0.0683
     16 C          23.3992   41.2013    3.6601 C.ar    1  LIG1        0.1417
     17 N          23.3400   40.1644    4.5484 N.ar    1  LIG1       -0.2140
     18 C          22.1710   39.9440    5.2012 C.ar    1  LIG1        0.1445
     19 CL         17.6893   40.9440    9.0001 Cl      1  LIG1       -0.0820
     20 CL         20.6364   41.3873    7.9395 Cl      1  LIG1       -0.0814
     21 N          22.1416   38.8888    6.1136 N.pl3   1  LIG1       -0.3414
     22 N          28.0989   43.5943    3.8660 N.4     1  LIG1        0.2228
     23 C          27.9436   42.4192    1.7238 C.3     1  LIG1       -0.0187
     24 H          25.0503   42.2737    1.0942 H       1  LIG1        0.0466
     25 H          23.9119   43.1848    1.9547 H       1  LIG1        0.0466
     26 H          25.4859   43.9463    3.6444 H       1  LIG1        0.0338
     27 H          26.0860   44.3382    2.0668 H       1  LIG1        0.0338
     28 H          26.5729   41.6227    4.8160 H       1  LIG1        0.0338
     29 H          27.7863   40.7975    3.9041 H       1  LIG1        0.0338
     30 H          26.0871   40.2123    2.1375 H       1  LIG1        0.0466
     31 H          25.5582   39.6711    3.6882 H       1  LIG1        0.0466
     32 H          16.0966   39.9833    6.8773 H       1  LIG1        0.0633
     33 H          16.6181   39.4786    4.5197 H       1  LIG1        0.0618
     34 H          18.8774   39.8300    3.6455 H       1  LIG1        0.0625
     35 H          22.2396   42.8343    2.7649 H       1  LIG1        0.0865
     36 H          21.2965   38.6913    6.6248 H       1  LIG1        0.1438
     37 H          22.9864   38.3512    6.2928 H       1  LIG1        0.1438
     38 H          28.9778   43.1202    4.0164 H       1  LIG1        0.1999
     39 H          28.2718   44.4626    3.3564 H       1  LIG1        0.1999
     40 H          27.3240   41.8322    1.0495 H       1  LIG1        0.0287
     41 H          28.8549   41.8535    1.9210 H       1  LIG1        0.0287
     42 H          28.2173   43.3396    1.2082 H       1  LIG1        0.0287
     43 H          27.6680   43.8147    4.7509 H       1  LIG1        0.1999
@<TRIPOS>BOND
     1     1     2    1
     2     1     6    1
     3     1    16    1
     4     2     3    1
     5     2    24    1
     6     2    25    1
     7     3     4    1
     8     3    26    1
     9     3    27    1
    10     4     5    1
    11     4    22    1
    12     4    23    1
    13     5     6    1
    14     5    28    1
    15     5    29    1
    16     6    30    1
    17     6    31    1
    18     7     8   ar
    19     7    12   ar
    20     7    13    1
    21     8     9   ar
    22     8    20    1
    23     9    10   ar
    24     9    19    1
    25    10    11   ar
    26    10    32    1
    27    11    12   ar
    28    11    33    1
    29    12    34    1
    30    13    14   ar
    31    13    18   ar
    32    14    15   ar
    33    15    16   ar
    34    15    35    1
    35    16    17   ar
    36    17    18   ar
    37    18    21    1
    38    21    36    1
    39    21    37    1
    40    22    38    1
    41    22    39    1
    42    22    43    1
    43    23    40    1
    44    23    41    1
    45    23    42    1
