@<TRIPOS>MOLECULE
Example 1
 43 45 0 0 0
SMALL
GASTEIGER
****
Structure written by MMmdl.
@<TRIPOS>ATOM
      1 N          24.5492   41.4103    2.9581 N.pl3   1  LIG1       -0.2992
      2 C          24.8206   42.5674    2.0917 C.3     1  LIG1        0.0202
      3 C          25.9010   43.4845    2.7073 C.3     1  LIG1        0.0087
      4 C          27.2006   42.7197    3.0160 C.3     1  LIG1       -0.0135
      5 C          26.8994   41.4031    3.7428 C.3     1  LIG1        0.0087
      6 C          25.7707   40.5926    3.0746 C.3     1  LIG1        0.0202
      7 C          19.6801   40.5131    5.5639 C.ar    1  LIG1        0.0066
      8 C          19.3880   40.8059    6.9100 C.ar    1  LIG1        0.0671
      9 C          18.0896   40.6058    7.4051 C.ar    1  LIG1        0.0598
     10 C          17.0975   40.0865    6.5706 C.ar    1  LIG1       -0.0419
     11 C          17.3885   39.7774    5.2446 C.ar    1  LIG1       -0.0597
     12 C          18.6614   40.0160    4.7431 C.ar    1  LIG1       -0.0524
     13 C          20.9975   40.7599    4.9628 C.ar    1  LIG1        0.0413
     14 C          21.1772   41.8132    4.0533 C.ar    1  LIG1        0.0422
     15 N          22.3346   42.0475    3.4126 N.ar    1  LIG1       -0.2220
     16 C          23.3734   41.2177    3.6872 C.ar    1  LIG1        0.2195
     17 N          23.3126   40.1834    4.5784 N.ar    1  LIG1       -0.1992
     18 C          22.1341   39.9630    5.2013 C.ar    1  LIG1        0.1291
     19 CL         17.6784   41.0592    9.0215 Cl      1  LIG1       -0.0820
     20 CL         20.6099   41.5010    7.9303 Cl      1  LIG1       -0.0814
     21 N          22.0817   38.8852    6.0763 N.pl3   1  LIG1       -0.3425
     22 N          28.0958   43.6100    3.9243 N.4     1  LIG1        0.2228
     23 C          27.9161   42.4225    1.7316 C.3     1  LIG1       -0.0187
     24 H          25.1389   42.2068    1.1124 H       1  LIG1        0.0467
     25 H          23.9138   43.1447    1.9057 H       1  LIG1        0.0467
     26 H          25.4862   43.9168    3.6199 H       1  LIG1        0.0338
     27 H          26.0951   44.3193    2.0317 H       1  LIG1        0.0338
     28 H          26.5951   41.6002    4.7727 H       1  LIG1        0.0338
     29 H          27.7967   40.7849    3.8035 H       1  LIG1        0.0338
     30 H          26.0720   40.2559    2.0816 H       1  LIG1        0.0467
     31 H          25.5735   39.6851    3.6478 H       1  LIG1        0.0467
     32 H          16.0997   39.9343    6.9555 H       1  LIG1        0.0633
     33 H          16.6171   39.3789    4.6006 H       1  LIG1        0.0618
     34 H          18.8614   39.7882    3.7050 H       1  LIG1        0.0624
     35 H          28.3051   44.4803    3.4555 H       1  LIG1        0.1999
     36 H          27.2841   41.7985    1.0996 H       1  LIG1        0.0287
     37 H          28.8462   41.8967    1.9471 H       1  LIG1        0.0287
     38 H          28.1378   43.3561    1.2147 H       1  LIG1        0.0287
     39 H          27.6121   43.8070    4.7896 H       1  LIG1        0.1999
     40 H          21.2610   38.6962    6.6303 H       1  LIG1        0.1437
     41 H          20.3576   42.4728    3.8082 H       1  LIG1        0.0838
     42 H          22.9058   38.3372    6.2641 H       1  LIG1        0.1437
     43 H          28.9615   43.1311    4.1303 H       1  LIG1        0.1999
@<TRIPOS>BOND
     1     1     2    1
     2     1     6    1
     3     1    16    1
     4     2     3    1
     5     2    24    1
     6     2    25    1
     7     3     4    1
     8     3    26    1
     9     3    27    1
    10     4     5    1
    11     4    22    1
    12     4    23    1
    13     5     6    1
    14     5    28    1
    15     5    29    1
    16     6    30    1
    17     6    31    1
    18     7     8   ar
    19     7    12   ar
    20     7    13    1
    21     8     9   ar
    22     8    20    1
    23     9    10   ar
    24     9    19    1
    25    10    11   ar
    26    10    32    1
    27    11    12   ar
    28    11    33    1
    29    12    34    1
    30    13    14   ar
    31    13    18   ar
    32    14    15   ar
    33    14    41    1
    34    15    16   ar
    35    16    17   ar
    36    17    18   ar
    37    18    21    1
    38    21    40    1
    39    21    42    1
    40    22    35    1
    41    22    39    1
    42    22    43    1
    43    23    36    1
    44    23    37    1
    45    23    38    1
