@<TRIPOS>MOLECULE
Example 24
 46 48 0 0 0
SMALL
GASTEIGER
****
Structure written by MMmdl.
@<TRIPOS>ATOM
      1 N          24.6100   41.5762    3.1805 N.pl3   1  LIG1       -0.3133
      2 C          25.1012   42.9418    2.9241 C.3     1  LIG1        0.0189
      3 C          26.5271   43.2119    3.4404 C.3     1  LIG1        0.0086
      4 C          27.5120   42.1773    2.8862 C.3     1  LIG1       -0.0135
      5 C          27.0075   40.8187    3.4015 C.3     1  LIG1        0.0086
      6 C          25.5915   40.5142    2.8619 C.3     1  LIG1        0.0189
      7 C          19.6895   40.5804    5.6954 C.ar    1  LIG1        0.0234
      8 C          19.5253   40.8623    7.0657 C.ar    1  LIG1        0.0685
      9 C          18.3098   40.5691    7.7016 C.ar    1  LIG1        0.0599
     10 C          17.2585   40.0212    6.9710 C.ar    1  LIG1       -0.0419
     11 C          17.4135   39.7425    5.6150 C.ar    1  LIG1       -0.0597
     12 C          18.6218   40.0211    4.9824 C.ar    1  LIG1       -0.0510
     13 C          20.9859   40.8084    5.0038 C.ar    1  LIG1        0.1122
     14 N          20.9938   41.7637    4.0398 N.ar    1  LIG1       -0.2450
     15 C          22.1560   42.0156    3.3787 C.ar    1  LIG1        0.0788
     16 C          23.3435   41.3173    3.7063 C.ar    1  LIG1        0.1446
     17 N          23.3074   40.3369    4.6515 N.ar    1  LIG1       -0.2138
     18 C          22.1430   40.0739    5.2861 C.ar    1  LIG1        0.1446
     19 CL         18.0795   40.8700    9.3883 Cl      1  LIG1       -0.0820
     20 CL         20.8043   41.6192    7.9628 Cl      1  LIG1       -0.0814
     21 N          22.1461   39.0394    6.2158 N.pl3   1  LIG1       -0.3414
     22 N          28.8772   42.4513    3.5251 N.4     1  LIG1        0.2228
     23 C          27.7125   42.2524    1.3549 C.3     1  LIG1       -0.0187
     24 H          25.0251   43.1641    1.8595 H       1  LIG1        0.0466
     25 H          24.4482   43.6227    3.4588 H       1  LIG1        0.0466
     26 H          26.5072   43.2143    4.5307 H       1  LIG1        0.0338
     27 H          26.8355   44.2201    3.1804 H       1  LIG1        0.0338
     28 H          26.9672   40.7880    4.4945 H       1  LIG1        0.0338
     29 H          27.6964   40.0229    3.1443 H       1  LIG1        0.0338
     30 H          25.6085   40.3843    1.7784 H       1  LIG1        0.0466
     31 H          25.2756   39.5545    3.2675 H       1  LIG1        0.0466
     32 H          16.3244   39.7869    7.4634 H       1  LIG1        0.0633
     33 H          18.7352   39.7751    3.9346 H       1  LIG1        0.0625
     34 C          21.9938   42.9789    2.2034 C.3     1  LIG1       -0.0190
     35 H          23.0100   38.5389    6.4063 H       1  LIG1        0.1438
     36 H          21.2983   38.8233    6.7146 H       1  LIG1        0.1438
     37 H          29.5591   41.7753    3.1813 H       1  LIG1        0.1999
     38 H          26.7880   42.0817    0.8050 H       1  LIG1        0.0287
     39 H          28.4324   41.5072    1.0133 H       1  LIG1        0.0287
     40 H          28.0791   43.2320    1.0448 H       1  LIG1        0.0287
     41 H          29.1960   43.3780    3.2760 H       1  LIG1        0.1999
     42 H          16.6052   39.2945    5.0545 H       1  LIG1        0.0618
     43 H          21.2382   43.7363    2.4123 H       1  LIG1        0.0294
     44 H          21.6793   42.4241    1.3190 H       1  LIG1        0.0294
     45 H          22.8897   43.5171    1.9214 H       1  LIG1        0.0294
     46 H          28.8262   42.3954    4.5336 H       1  LIG1        0.1999
@<TRIPOS>BOND
     1     1     2    1
     2     1     6    1
     3     1    16    1
     4     2     3    1
     5     2    24    1
     6     2    25    1
     7     3     4    1
     8     3    26    1
     9     3    27    1
    10     4     5    1
    11     4    22    1
    12     4    23    1
    13     5     6    1
    14     5    28    1
    15     5    29    1
    16     6    30    1
    17     6    31    1
    18     7     8   ar
    19     7    12   ar
    20     7    13    1
    21     8     9   ar
    22     8    20    1
    23     9    10   ar
    24     9    19    1
    25    10    11   ar
    26    10    32    1
    27    11    12   ar
    28    11    42    1
    29    12    33    1
    30    13    14   ar
    31    13    18   ar
    32    14    15   ar
    33    15    16   ar
    34    15    34    1
    35    16    17   ar
    36    17    18   ar
    37    18    21    1
    38    21    35    1
    39    21    36    1
    40    22    37    1
    41    22    41    1
    42    22    46    1
    43    23    38    1
    44    23    39    1
    45    23    40    1
    46    34    43    1
    47    34    44    1
    48    34    45    1
