@<TRIPOS>MOLECULE
Example 9
 43 45 0 0 0
SMALL
GASTEIGER
****
Structure written by MMmdl.
@<TRIPOS>ATOM
      1 N          24.5464   41.3949    2.9263 N.pl3   1  LIG1       -0.3139
      2 C          25.7503   40.5506    3.0678 C.3     1  LIG1        0.0140
      3 C          26.8709   41.3386    3.7371 C.3     1  LIG1       -0.0295
      4 C          27.1915   42.6963    3.0590 C.3     1  LIG1        0.0019
      5 C          25.8970   43.4712    2.7117 C.3     1  LIG1       -0.0295
      6 C          24.8154   42.5795    2.0867 C.3     1  LIG1        0.0140
      7 C          19.6840   40.5121    5.5351 C.ar    1  LIG1        0.0234
      8 C          19.3973   40.8099    6.8784 C.ar    1  LIG1        0.0685
      9 C          18.0967   40.6108    7.3636 C.ar    1  LIG1        0.0599
     10 C          17.1071   40.1041    6.5219 C.ar    1  LIG1       -0.0419
     11 C          17.3987   39.8007    5.1957 C.ar    1  LIG1       -0.0597
     12 C          18.6780   40.0165    4.7027 C.ar    1  LIG1       -0.0510
     13 C          21.0250   40.7291    4.9494 C.ar    1  LIG1        0.1119
     14 N          21.0676   41.7591    4.0708 N.ar    1  LIG1       -0.2481
     15 C          22.2387   42.0000    3.4418 C.ar    1  LIG1        0.0683
     16 C          23.3752   41.2250    3.6683 C.ar    1  LIG1        0.1417
     17 N          23.3242   40.1927    4.5641 N.ar    1  LIG1       -0.2140
     18 C          22.1526   39.9513    5.2085 C.ar    1  LIG1        0.1445
     19 CL         17.6773   41.0128    8.9912 Cl      1  LIG1       -0.0820
     20 CL         20.6231   41.4655    7.9185 Cl      1  LIG1       -0.0814
     21 N          22.1265   38.8828    6.1041 N.pl3   1  LIG1       -0.3414
     22 C          28.1625   43.5343    3.8924 C.3     1  LIG1       -0.0324
     23 H          25.5587   39.6764    3.6932 H       1  LIG1        0.0464
     24 H          26.0969   40.1748    2.1061 H       1  LIG1        0.0464
     25 H          27.7908   40.7659    3.8607 H       1  LIG1        0.0285
     26 H          26.5127   41.4833    4.7526 H       1  LIG1        0.0285
     27 H          26.1111   44.3263    2.0672 H       1  LIG1        0.0285
     28 H          25.4516   43.9274    3.5976 H       1  LIG1        0.0285
     29 H          23.9414   43.2111    1.9643 H       1  LIG1        0.0464
     30 H          25.0798   42.2770    1.0727 H       1  LIG1        0.0464
     31 H          16.0992   39.9731    6.8871 H       1  LIG1        0.0633
     32 H          18.8916   39.7797    3.6691 H       1  LIG1        0.0625
     33 H          22.1946   42.8157    2.7405 H       1  LIG1        0.0865
     34 H          22.9841   38.3692    6.2894 H       1  LIG1        0.1438
     35 H          21.2832   38.6944    6.6229 H       1  LIG1        0.1438
     36 H          16.6388   39.4078    4.5399 H       1  LIG1        0.0618
     37 H          29.2212   43.2300    3.9016 H       1  LIG1        0.0816
     38 N          27.6786   43.5174    5.3054 N.4     1  LIG1        0.2187
     39 H          27.9748   44.5967    3.9512 H       1  LIG1        0.0816
     40 H          28.3182   44.0905    5.8559 H       1  LIG1        0.1994
     41 H          26.7558   43.9317    5.3912 H       1  LIG1        0.1994
     42 H          27.6585   42.4680    2.0998 H       1  LIG1        0.0353
     43 H          27.6933   42.6032    5.7389 H       1  LIG1        0.1994
@<TRIPOS>BOND
     1     1     2    1
     2     1     6    1
     3     1    16    1
     4     2     3    1
     5     2    23    1
     6     2    24    1
     7     3     4    1
     8     3    25    1
     9     3    26    1
    10     4     5    1
    11     4    22    1
    12     4    42    1
    13     5     6    1
    14     5    27    1
    15     5    28    1
    16     6    29    1
    17     6    30    1
    18     7     8   ar
    19     7    12   ar
    20     7    13    1
    21     8     9   ar
    22     8    20    1
    23     9    10   ar
    24     9    19    1
    25    10    11   ar
    26    10    31    1
    27    11    12   ar
    28    11    36    1
    29    12    32    1
    30    13    14   ar
    31    13    18   ar
    32    14    15   ar
    33    15    16   ar
    34    15    33    1
    35    16    17   ar
    36    17    18   ar
    37    18    21    1
    38    21    34    1
    39    21    35    1
    40    22    37    1
    41    22    38    1
    42    22    39    1
    43    38    40    1
    44    38    41    1
    45    38    43    1
