Example 8
 OpenBabel02152110423D
Structure written by MMmdl.
 46 48  0  0  1  0  0  0  0  0999 V2000
   24.5594   41.3986    2.9317 N   0  0  0  0  0  0  0  0  0  0  0  0
   25.7611   40.5558    3.0894 C   0  0  0  0  0  0  0  0  0  0  0  0
   26.8712   41.3609    3.7612 C   0  0  0  0  0  0  0  0  0  0  0  0
   27.2234   42.6835    3.0209 C   0  0  0  0  0  0  0  0  0  0  0  0
   25.8987   43.4737    2.7315 C   0  0  0  0  0  0  0  0  0  0  0  0
   24.8053   42.5917    2.0987 C   0  0  0  0  0  0  0  0  0  0  0  0
   19.6880   40.5151    5.5295 C   0  0  0  0  0  0  0  0  0  0  0  0
   19.3970   40.8120    6.8734 C   0  0  0  0  0  0  0  0  0  0  0  0
   18.0969   40.6099    7.3595 C   0  0  0  0  0  0  0  0  0  0  0  0
   17.1044   40.1134    6.5151 C   0  0  0  0  0  0  0  0  0  0  0  0
   17.3955   39.8141    5.1884 C   0  0  0  0  0  0  0  0  0  0  0  0
   18.6784   40.0224    4.6979 C   0  0  0  0  0  0  0  0  0  0  0  0
   21.0311   40.7308    4.9444 C   0  0  0  0  0  0  0  0  0  0  0  0
   21.0849   41.7512    4.0542 N   0  0  0  0  0  0  0  0  0  0  0  0
   22.2536   41.9949    3.4287 C   0  0  0  0  0  0  0  0  0  0  0  0
   23.3876   41.2120    3.6562 C   0  0  0  0  0  0  0  0  0  0  0  0
   23.3295   40.1869    4.5597 N   0  0  0  0  0  0  0  0  0  0  0  0
   22.1602   39.9463    5.2058 C   0  0  0  0  0  0  0  0  0  0  0  0
   17.6785   40.9865    8.9940 Cl  0  0  0  0  0  0  0  0  0  0  0  0
   20.6272   41.4363    7.9277 Cl  0  0  0  0  0  0  0  0  0  0  0  0
   22.1325   38.8841    6.1087 N   0  0  0  0  0  0  0  0  0  0  0  0
   28.1713   43.4659    3.9245 C   0  0  0  0  0  0  0  0  0  0  0  0
   27.9599   42.4153    1.7087 C   0  0  0  0  0  0  0  0  0  0  0  0
   25.5418   39.6858    3.7105 H   0  0  0  0  0  0  0  0  0  0  0  0
   26.1035   40.1645    2.1335 H   0  0  0  0  0  0  0  0  0  0  0  0
   27.7839   40.7770    3.8765 H   0  0  0  0  0  0  0  0  0  0  0  0
   26.5428   41.5457    4.7791 H   0  0  0  0  0  0  0  0  0  0  0  0
   26.0922   44.3272    2.0734 H   0  0  0  0  0  0  0  0  0  0  0  0
   25.4755   43.9389    3.6240 H   0  0  0  0  0  0  0  0  0  0  0  0
   23.9086   43.1927    1.9970 H   0  0  0  0  0  0  0  0  0  0  0  0
   25.0548   42.3035    1.0774 H   0  0  0  0  0  0  0  0  0  0  0  0
   16.0979   39.9774    6.8828 H   0  0  0  0  0  0  0  0  0  0  0  0
   18.8869   39.7946    3.6591 H   0  0  0  0  0  0  0  0  0  0  0  0
   22.2197   42.8194    2.7371 H   0  0  0  0  0  0  0  0  0  0  0  0
   22.9863   38.3608    6.2905 H   0  0  0  0  0  0  0  0  0  0  0  0
   21.2877   38.6934    6.6244 H   0  0  0  0  0  0  0  0  0  0  0  0
   27.3855   41.8135    1.0137 H   0  0  0  0  0  0  0  0  0  0  0  0
   28.8919   41.8903    1.9260 H   0  0  0  0  0  0  0  0  0  0  0  0
   28.2305   43.3531    1.2163 H   0  0  0  0  0  0  0  0  0  0  0  0
   16.6291   39.4353    4.5313 H   0  0  0  0  0  0  0  0  0  0  0  0
   29.2219   43.1499    3.9643 H   0  0  0  0  0  0  0  0  0  0  0  0
   27.6581   43.5644    5.3258 N   0  3  0  0  0  0  0  0  0  0  0  0
   28.1411   44.4660    3.7490 H   0  0  0  0  0  0  0  0  0  0  0  0
   28.3153   44.1625    5.8628 H   0  0  0  0  0  0  0  0  0  0  0  0
   26.7496   43.9973    5.3977 H   0  0  0  0  0  0  0  0  0  0  0  0
   27.6704   42.6729    5.7808 H   0  0  0  0  0  0  0  0  0  0  0  0
  1  2  1  0  0  0  0
  1  6  1  0  0  0  0
  1 16  1  0  0  0  0
  2  3  1  0  0  0  0
  2 24  1  0  0  0  0
  2 25  1  0  0  0  0
  3  4  1  0  0  0  0
  3 26  1  0  0  0  0
  3 27  1  0  0  0  0
  4  5  1  0  0  0  0
  4 22  1  0  0  0  0
  4 23  1  0  0  0  0
  5  6  1  0  0  0  0
  5 28  1  0  0  0  0
  5 29  1  0  0  0  0
  6 30  1  0  0  0  0
  6 31  1  0  0  0  0
  7  8  2  0  0  0  0
  7 12  1  0  0  0  0
  7 13  1  0  0  0  0
  8  9  1  0  0  0  0
  8 20  1  0  0  0  0
  9 10  2  0  0  0  0
  9 19  1  0  0  0  0
 10 11  1  0  0  0  0
 10 32  1  0  0  0  0
 11 12  2  0  0  0  0
 11 40  1  0  0  0  0
 12 33  1  0  0  0  0
 13 14  2  0  0  0  0
 13 18  1  0  0  0  0
 14 15  1  0  0  0  0
 15 16  2  0  0  0  0
 15 34  1  0  0  0  0
 16 17  1  0  0  0  0
 17 18  2  0  0  0  0
 18 21  1  0  0  0  0
 21 35  1  0  0  0  0
 21 36  1  0  0  0  0
 22 41  1  0  0  0  0
 22 42  1  0  0  0  0
 22 43  1  0  0  0  0
 23 37  1  0  0  0  0
 23 38  1  0  0  0  0
 23 39  1  0  0  0  0
 42 44  1  0  0  0  0
 42 45  1  0  0  0  0
 42 46  1  0  0  0  0
M  CHG  1  42   1
M  END
>  <ID>
Example 8

>  <IC50 uM>
0.076

$$$$
