Example 28
 OpenBabel02152110423D
Structure written by MMmdl.
 47 50  0  0  1  0  0  0  0  0999 V2000
   24.5514   41.4004    2.9329 N   0  0  0  0  0  0  0  0  0  0  0  0
   24.8291   42.5878    2.0978 C   0  0  0  0  0  0  0  0  0  0  0  0
   25.9013   43.4869    2.7358 C   0  0  0  0  0  0  0  0  0  0  0  0
   27.2025   42.7130    3.0211 C   0  0  0  0  0  0  0  0  0  0  0  0
   26.8895   41.4079    3.7802 C   0  0  0  0  0  0  0  0  0  0  0  0
   25.7697   40.5859    3.1067 C   0  0  0  0  0  0  0  0  0  0  0  0
   19.6794   40.5104    5.5019 C   0  0  0  0  0  0  0  0  0  0  0  0
   18.6195   40.0391    4.7203 C   0  0  0  0  0  0  0  0  0  0  0  0
   17.3223   39.7888    5.2688 C   0  0  0  0  0  0  0  0  0  0  0  0
   17.0983   40.0475    6.6166 C   0  0  0  0  0  0  0  0  0  0  0  0
   18.1375   40.5477    7.3749 C   0  0  0  0  0  0  0  0  0  0  0  0
   19.4091   40.7389    6.8493 C   0  0  0  0  0  0  0  0  0  0  0  0
   21.0201   40.7305    4.9348 C   0  0  0  0  0  0  0  0  0  0  0  0
   21.0640   41.7682    4.0714 N   0  0  0  0  0  0  0  0  0  0  0  0
   22.2386   42.0088    3.4485 C   0  0  0  0  0  0  0  0  0  0  0  0
   23.3718   41.2305    3.6715 C   0  0  0  0  0  0  0  0  0  0  0  0
   23.3249   40.1985    4.5693 N   0  0  0  0  0  0  0  0  0  0  0  0
   22.1491   39.9575    5.2053 C   0  0  0  0  0  0  0  0  0  0  0  0
   22.1311   38.8990    6.1150 N   0  0  0  0  0  0  0  0  0  0  0  0
   28.0744   43.6010    3.9172 N   0  3  0  0  0  0  0  0  0  0  0  0
   27.9821   42.4323    1.7232 C   0  0  0  0  0  0  0  0  0  0  0  0
   16.5080   39.3055    4.2140 C   0  0  0  0  0  0  0  0  0  0  0  0
   17.2883   39.3122    3.1020 C   0  0  0  0  0  0  0  0  0  0  0  0
   18.5615   39.7270    3.3961 N   0  0  0  0  0  0  0  0  0  0  0  0
   25.1019   42.2746    1.0887 H   0  0  0  0  0  0  0  0  0  0  0  0
   23.9645   43.2246    1.9476 H   0  0  0  0  0  0  0  0  0  0  0  0
   25.4768   43.9409    3.6329 H   0  0  0  0  0  0  0  0  0  0  0  0
   26.0940   44.3339    2.0744 H   0  0  0  0  0  0  0  0  0  0  0  0
   26.5661   41.6170    4.7921 H   0  0  0  0  0  0  0  0  0  0  0  0
   27.7871   40.7997    3.8883 H   0  0  0  0  0  0  0  0  0  0  0  0
   26.1030   40.2012    2.1409 H   0  0  0  0  0  0  0  0  0  0  0  0
   25.5830   39.6922    3.7042 H   0  0  0  0  0  0  0  0  0  0  0  0
   16.1261   39.8633    7.0481 H   0  0  0  0  0  0  0  0  0  0  0  0
   17.9366   40.7977    8.3897 H   0  0  0  0  0  0  0  0  0  0  0  0
   20.2028   41.0754    7.4958 H   0  0  0  0  0  0  0  0  0  0  0  0
   22.1832   42.8209    2.7432 H   0  0  0  0  0  0  0  0  0  0  0  0
   21.2808   38.6923    6.6167 H   0  0  0  0  0  0  0  0  0  0  0  0
   22.9874   38.3835    6.2927 H   0  0  0  0  0  0  0  0  0  0  0  0
   28.9438   43.1329    4.1367 H   0  0  0  0  0  0  0  0  0  0  0  0
   28.2765   44.4608    3.4084 H   0  0  0  0  0  0  0  0  0  0  0  0
   27.4273   41.7698    1.0576 H   0  0  0  0  0  0  0  0  0  0  0  0
   28.9404   41.9534    1.9312 H   0  0  0  0  0  0  0  0  0  0  0  0
   28.1739   43.3532    1.1710 H   0  0  0  0  0  0  0  0  0  0  0  0
   15.4567   39.0511    4.2584 H   0  0  0  0  0  0  0  0  0  0  0  0
   17.0853   39.1306    2.0660 H   0  0  0  0  0  0  0  0  0  0  0  0
   19.2785   39.8207    2.6938 H   0  0  0  0  0  0  0  0  0  0  0  0
   27.6026   43.8497    4.7761 H   0  0  0  0  0  0  0  0  0  0  0  0
  1  2  1  0  0  0  0
  1  6  1  0  0  0  0
  1 16  1  0  0  0  0
  2  3  1  0  0  0  0
  2 25  1  0  0  0  0
  2 26  1  0  0  0  0
  3  4  1  0  0  0  0
  3 27  1  0  0  0  0
  3 28  1  0  0  0  0
  4  5  1  0  0  0  0
  4 20  1  0  0  0  0
  4 21  1  0  0  0  0
  5  6  1  0  0  0  0
  5 29  1  0  0  0  0
  5 30  1  0  0  0  0
  6 31  1  0  0  0  0
  6 32  1  0  0  0  0
  7  8  2  0  0  0  0
  7 12  1  0  0  0  0
  7 13  1  0  0  0  0
  8  9  1  0  0  0  0
  8 24  1  0  0  0  0
  9 10  2  0  0  0  0
  9 22  1  0  0  0  0
 10 11  1  0  0  0  0
 10 33  1  0  0  0  0
 11 12  2  0  0  0  0
 11 34  1  0  0  0  0
 12 35  1  0  0  0  0
 13 14  2  0  0  0  0
 13 18  1  0  0  0  0
 14 15  1  0  0  0  0
 15 16  2  0  0  0  0
 15 36  1  0  0  0  0
 16 17  1  0  0  0  0
 17 18  2  0  0  0  0
 18 19  1  0  0  0  0
 19 37  1  0  0  0  0
 19 38  1  0  0  0  0
 20 39  1  0  0  0  0
 20 40  1  0  0  0  0
 20 47  1  0  0  0  0
 21 41  1  0  0  0  0
 21 42  1  0  0  0  0
 21 43  1  0  0  0  0
 22 23  2  0  0  0  0
 22 44  1  0  0  0  0
 23 24  1  0  0  0  0
 23 45  1  0  0  0  0
 24 46  1  0  0  0  0
M  CHG  1  20   1
M  END
>  <ID>
Example 28

>  <IC50 uM>
0.632

$$$$
