@<TRIPOS>MOLECULE
Example 6
 44 46 0 0 0
SMALL
GASTEIGER
****
Structure written by MMmdl.
@<TRIPOS>ATOM
      1 N          24.5541   41.4086    2.9391 N.pl3   1  LIG1       -0.2992
      2 C          24.8162   42.5900    2.0939 C.3     1  LIG1        0.0202
      3 C          25.8942   43.4882    2.7380 C.3     1  LIG1        0.0087
      4 C          27.1958   42.7090    3.0142 C.3     1  LIG1       -0.0135
      5 C          26.8854   41.4093    3.7822 C.3     1  LIG1        0.0087
      6 C          25.7779   40.5804    3.0987 C.3     1  LIG1        0.0202
      7 C          19.7564   40.5728    5.6014 C.ar    1  LIG1        0.0100
      8 C          19.4547   40.9011    6.9415 C.ar    1  LIG1        0.0673
      9 C          18.1494   40.6979    7.4298 C.ar    1  LIG1        0.0633
     10 C          17.1817   40.1496    6.5987 C.ar    1  LIG1       -0.0004
     11 C          17.5342   39.8095    5.2908 C.ar    1  LIG1        0.1189
     12 C          18.7834   40.0332    4.7935 C.ar    1  LIG1       -0.0108
     13 C          21.0555   40.7706    4.9811 C.ar    1  LIG1        0.0414
     14 C          21.1033   41.7740    4.0767 C.ar    1  LIG1        0.0422
     15 N          22.2526   42.0186    3.4385 N.ar    1  LIG1       -0.2220
     16 C          23.4020   41.2202    3.6592 C.ar    1  LIG1        0.2195
     17 N          23.3305   40.2002    4.5650 N.ar    1  LIG1       -0.1992
     18 C          22.1801   39.9475    5.2152 C.ar    1  LIG1        0.1291
     19 CL         17.6819   41.1426    9.0368 Cl      1  LIG1       -0.0819
     20 CL         20.6649   41.6022    7.9487 Cl      1  LIG1       -0.0814
     21 N          22.1235   38.8853    6.1019 N.pl3   1  LIG1       -0.3425
     22 N          28.1023   43.5979    3.8918 N.4     1  LIG1        0.2228
     23 C          27.9589   42.4195    1.7111 C.3     1  LIG1       -0.0187
     24 H          25.1155   42.2545    1.1021 H       1  LIG1        0.0467
     25 H          23.9209   43.1944    1.9448 H       1  LIG1        0.0467
     26 H          25.4809   43.9293    3.6447 H       1  LIG1        0.0338
     27 H          26.0877   44.3393    2.0844 H       1  LIG1        0.0338
     28 H          26.5544   41.6337    4.7911 H       1  LIG1        0.0338
     29 H          27.7848   40.8008    3.9031 H       1  LIG1        0.0338
     30 H          26.1017   40.2324    2.1198 H       1  LIG1        0.0467
     31 H          25.5813   39.6721    3.6761 H       1  LIG1        0.0467
     32 H          16.1633   39.9801    6.9291 H       1  LIG1        0.0669
     33 O          16.7880   39.2082    4.4520 O.3     1  LIG1       -0.5067
     34 H          18.9577   39.7583    3.7588 H       1  LIG1        0.0661
     35 H          22.9880   38.3677    6.2895 H       1  LIG1        0.1437
     36 H          21.2815   38.6983    6.6223 H       1  LIG1        0.1437
     37 H          28.9810   43.1378    4.0530 H       1  LIG1        0.1999
     38 H          27.3552   41.8253    1.0198 H       1  LIG1        0.0287
     39 H          28.8716   41.8497    1.8984 H       1  LIG1        0.0287
     40 H          28.2274   43.3362    1.1878 H       1  LIG1        0.0287
     41 H          28.2606   44.4661    3.3879 H       1  LIG1        0.1999
     42 H          15.9304   38.9893    4.9002 H       1  LIG1        0.2921
     43 H          27.6643   43.8132    4.7674 H       1  LIG1        0.1999
     44 H          20.2212   42.3647    3.8785 H       1  LIG1        0.0838
@<TRIPOS>BOND
     1     1     2    1
     2     1     6    1
     3     1    16    1
     4     2     3    1
     5     2    24    1
     6     2    25    1
     7     3     4    1
     8     3    26    1
     9     3    27    1
    10     4     5    1
    11     4    22    1
    12     4    23    1
    13     5     6    1
    14     5    28    1
    15     5    29    1
    16     6    30    1
    17     6    31    1
    18     7     8   ar
    19     7    12   ar
    20     7    13    1
    21     8     9   ar
    22     8    20    1
    23     9    10   ar
    24     9    19    1
    25    10    11   ar
    26    10    32    1
    27    11    12   ar
    28    11    33    1
    29    12    34    1
    30    13    14   ar
    31    13    18   ar
    32    14    15   ar
    33    14    44    1
    34    15    16   ar
    35    16    17   ar
    36    17    18   ar
    37    18    21    1
    38    21    35    1
    39    21    36    1
    40    22    37    1
    41    22    41    1
    42    22    43    1
    43    23    38    1
    44    23    39    1
    45    23    40    1
    46    33    42    1
