Example 24
 OpenBabel02152110423D
Structure written by MMmdl.
 46 48  0  0  1  0  0  0  0  0999 V2000
   24.6100   41.5762    3.1805 N   0  0  0  0  0  0  0  0  0  0  0  0
   25.1012   42.9418    2.9241 C   0  0  0  0  0  0  0  0  0  0  0  0
   26.5271   43.2119    3.4404 C   0  0  0  0  0  0  0  0  0  0  0  0
   27.5120   42.1773    2.8862 C   0  0  0  0  0  0  0  0  0  0  0  0
   27.0075   40.8187    3.4015 C   0  0  0  0  0  0  0  0  0  0  0  0
   25.5915   40.5142    2.8619 C   0  0  0  0  0  0  0  0  0  0  0  0
   19.6895   40.5804    5.6954 C   0  0  0  0  0  0  0  0  0  0  0  0
   19.5253   40.8623    7.0657 C   0  0  0  0  0  0  0  0  0  0  0  0
   18.3098   40.5691    7.7016 C   0  0  0  0  0  0  0  0  0  0  0  0
   17.2585   40.0212    6.9710 C   0  0  0  0  0  0  0  0  0  0  0  0
   17.4135   39.7425    5.6150 C   0  0  0  0  0  0  0  0  0  0  0  0
   18.6218   40.0211    4.9824 C   0  0  0  0  0  0  0  0  0  0  0  0
   20.9859   40.8084    5.0038 C   0  0  0  0  0  0  0  0  0  0  0  0
   20.9938   41.7637    4.0398 N   0  0  0  0  0  0  0  0  0  0  0  0
   22.1560   42.0156    3.3787 C   0  0  0  0  0  0  0  0  0  0  0  0
   23.3435   41.3173    3.7063 C   0  0  0  0  0  0  0  0  0  0  0  0
   23.3074   40.3369    4.6515 N   0  0  0  0  0  0  0  0  0  0  0  0
   22.1430   40.0739    5.2861 C   0  0  0  0  0  0  0  0  0  0  0  0
   18.0795   40.8700    9.3883 Cl  0  0  0  0  0  0  0  0  0  0  0  0
   20.8043   41.6192    7.9628 Cl  0  0  0  0  0  0  0  0  0  0  0  0
   22.1461   39.0394    6.2158 N   0  0  0  0  0  0  0  0  0  0  0  0
   28.8772   42.4513    3.5251 N   0  3  0  0  0  0  0  0  0  0  0  0
   27.7125   42.2524    1.3549 C   0  0  0  0  0  0  0  0  0  0  0  0
   25.0251   43.1641    1.8595 H   0  0  0  0  0  0  0  0  0  0  0  0
   24.4482   43.6227    3.4588 H   0  0  0  0  0  0  0  0  0  0  0  0
   26.5072   43.2143    4.5307 H   0  0  0  0  0  0  0  0  0  0  0  0
   26.8355   44.2201    3.1804 H   0  0  0  0  0  0  0  0  0  0  0  0
   26.9672   40.7880    4.4945 H   0  0  0  0  0  0  0  0  0  0  0  0
   27.6964   40.0229    3.1443 H   0  0  0  0  0  0  0  0  0  0  0  0
   25.6085   40.3843    1.7784 H   0  0  0  0  0  0  0  0  0  0  0  0
   25.2756   39.5545    3.2675 H   0  0  0  0  0  0  0  0  0  0  0  0
   16.3244   39.7869    7.4634 H   0  0  0  0  0  0  0  0  0  0  0  0
   18.7352   39.7751    3.9346 H   0  0  0  0  0  0  0  0  0  0  0  0
   21.9938   42.9789    2.2034 C   0  0  0  0  0  0  0  0  0  0  0  0
   23.0100   38.5389    6.4063 H   0  0  0  0  0  0  0  0  0  0  0  0
   21.2983   38.8233    6.7146 H   0  0  0  0  0  0  0  0  0  0  0  0
   29.5591   41.7753    3.1813 H   0  0  0  0  0  0  0  0  0  0  0  0
   26.7880   42.0817    0.8050 H   0  0  0  0  0  0  0  0  0  0  0  0
   28.4324   41.5072    1.0133 H   0  0  0  0  0  0  0  0  0  0  0  0
   28.0791   43.2320    1.0448 H   0  0  0  0  0  0  0  0  0  0  0  0
   29.1960   43.3780    3.2760 H   0  0  0  0  0  0  0  0  0  0  0  0
   16.6052   39.2945    5.0545 H   0  0  0  0  0  0  0  0  0  0  0  0
   21.2382   43.7363    2.4123 H   0  0  0  0  0  0  0  0  0  0  0  0
   21.6793   42.4241    1.3190 H   0  0  0  0  0  0  0  0  0  0  0  0
   22.8897   43.5171    1.9214 H   0  0  0  0  0  0  0  0  0  0  0  0
   28.8262   42.3954    4.5336 H   0  0  0  0  0  0  0  0  0  0  0  0
  1  2  1  0  0  0  0
  1  6  1  0  0  0  0
  1 16  1  0  0  0  0
  2  3  1  0  0  0  0
  2 24  1  0  0  0  0
  2 25  1  0  0  0  0
  3  4  1  0  0  0  0
  3 26  1  0  0  0  0
  3 27  1  0  0  0  0
  4  5  1  0  0  0  0
  4 22  1  0  0  0  0
  4 23  1  0  0  0  0
  5  6  1  0  0  0  0
  5 28  1  0  0  0  0
  5 29  1  0  0  0  0
  6 30  1  0  0  0  0
  6 31  1  0  0  0  0
  7  8  2  0  0  0  0
  7 12  1  0  0  0  0
  7 13  1  0  0  0  0
  8  9  1  0  0  0  0
  8 20  1  0  0  0  0
  9 10  2  0  0  0  0
  9 19  1  0  0  0  0
 10 11  1  0  0  0  0
 10 32  1  0  0  0  0
 11 12  2  0  0  0  0
 11 42  1  0  0  0  0
 12 33  1  0  0  0  0
 13 14  2  0  0  0  0
 13 18  1  0  0  0  0
 14 15  1  0  0  0  0
 15 16  2  0  0  0  0
 15 34  1  0  0  0  0
 16 17  1  0  0  0  0
 17 18  2  0  0  0  0
 18 21  1  0  0  0  0
 21 35  1  0  0  0  0
 21 36  1  0  0  0  0
 22 37  1  0  0  0  0
 22 41  1  0  0  0  0
 22 46  1  0  0  0  0
 23 38  1  0  0  0  0
 23 39  1  0  0  0  0
 23 40  1  0  0  0  0
 34 43  1  0  0  0  0
 34 44  1  0  0  0  0
 34 45  1  0  0  0  0
M  CHG  1  22   1
M  END
>  <ID>
Example 24

>  <IC50 uM>
0.222

$$$$
