Example 1
 OpenBabel02152110423D
Structure written by MMmdl.
 43 45  0  0  1  0  0  0  0  0999 V2000
   24.5492   41.4103    2.9581 N   0  0  0  0  0  0  0  0  0  0  0  0
   24.8206   42.5674    2.0917 C   0  0  0  0  0  0  0  0  0  0  0  0
   25.9010   43.4845    2.7073 C   0  0  0  0  0  0  0  0  0  0  0  0
   27.2006   42.7197    3.0160 C   0  0  0  0  0  0  0  0  0  0  0  0
   26.8994   41.4031    3.7428 C   0  0  0  0  0  0  0  0  0  0  0  0
   25.7707   40.5926    3.0746 C   0  0  0  0  0  0  0  0  0  0  0  0
   19.6801   40.5131    5.5639 C   0  0  0  0  0  0  0  0  0  0  0  0
   19.3880   40.8059    6.9100 C   0  0  0  0  0  0  0  0  0  0  0  0
   18.0896   40.6058    7.4051 C   0  0  0  0  0  0  0  0  0  0  0  0
   17.0975   40.0865    6.5706 C   0  0  0  0  0  0  0  0  0  0  0  0
   17.3885   39.7774    5.2446 C   0  0  0  0  0  0  0  0  0  0  0  0
   18.6614   40.0160    4.7431 C   0  0  0  0  0  0  0  0  0  0  0  0
   20.9975   40.7599    4.9628 C   0  0  0  0  0  0  0  0  0  0  0  0
   21.1772   41.8132    4.0533 C   0  0  0  0  0  0  0  0  0  0  0  0
   22.3346   42.0475    3.4126 N   0  0  0  0  0  0  0  0  0  0  0  0
   23.3734   41.2177    3.6872 C   0  0  0  0  0  0  0  0  0  0  0  0
   23.3126   40.1834    4.5784 N   0  0  0  0  0  0  0  0  0  0  0  0
   22.1341   39.9630    5.2013 C   0  0  0  0  0  0  0  0  0  0  0  0
   17.6784   41.0592    9.0215 Cl  0  0  0  0  0  0  0  0  0  0  0  0
   20.6099   41.5010    7.9303 Cl  0  0  0  0  0  0  0  0  0  0  0  0
   22.0817   38.8852    6.0763 N   0  0  0  0  0  0  0  0  0  0  0  0
   28.0958   43.6100    3.9243 N   0  3  0  0  0  0  0  0  0  0  0  0
   27.9161   42.4225    1.7316 C   0  0  0  0  0  0  0  0  0  0  0  0
   25.1389   42.2068    1.1124 H   0  0  0  0  0  0  0  0  0  0  0  0
   23.9138   43.1447    1.9057 H   0  0  0  0  0  0  0  0  0  0  0  0
   25.4862   43.9168    3.6199 H   0  0  0  0  0  0  0  0  0  0  0  0
   26.0951   44.3193    2.0317 H   0  0  0  0  0  0  0  0  0  0  0  0
   26.5951   41.6002    4.7727 H   0  0  0  0  0  0  0  0  0  0  0  0
   27.7967   40.7849    3.8035 H   0  0  0  0  0  0  0  0  0  0  0  0
   26.0720   40.2559    2.0816 H   0  0  0  0  0  0  0  0  0  0  0  0
   25.5735   39.6851    3.6478 H   0  0  0  0  0  0  0  0  0  0  0  0
   16.0997   39.9343    6.9555 H   0  0  0  0  0  0  0  0  0  0  0  0
   16.6171   39.3789    4.6006 H   0  0  0  0  0  0  0  0  0  0  0  0
   18.8614   39.7882    3.7050 H   0  0  0  0  0  0  0  0  0  0  0  0
   28.3051   44.4803    3.4555 H   0  0  0  0  0  0  0  0  0  0  0  0
   27.2841   41.7985    1.0996 H   0  0  0  0  0  0  0  0  0  0  0  0
   28.8462   41.8967    1.9471 H   0  0  0  0  0  0  0  0  0  0  0  0
   28.1378   43.3561    1.2147 H   0  0  0  0  0  0  0  0  0  0  0  0
   27.6121   43.8070    4.7896 H   0  0  0  0  0  0  0  0  0  0  0  0
   21.2610   38.6962    6.6303 H   0  0  0  0  0  0  0  0  0  0  0  0
   20.3576   42.4728    3.8082 H   0  0  0  0  0  0  0  0  0  0  0  0
   22.9058   38.3372    6.2641 H   0  0  0  0  0  0  0  0  0  0  0  0
   28.9615   43.1311    4.1303 H   0  0  0  0  0  0  0  0  0  0  0  0
  1  2  1  0  0  0  0
  1  6  1  0  0  0  0
  1 16  1  0  0  0  0
  2  3  1  0  0  0  0
  2 24  1  0  0  0  0
  2 25  1  0  0  0  0
  3  4  1  0  0  0  0
  3 26  1  0  0  0  0
  3 27  1  0  0  0  0
  4  5  1  0  0  0  0
  4 22  1  0  0  0  0
  4 23  1  0  0  0  0
  5  6  1  0  0  0  0
  5 28  1  0  0  0  0
  5 29  1  0  0  0  0
  6 30  1  0  0  0  0
  6 31  1  0  0  0  0
  7  8  2  0  0  0  0
  7 12  1  0  0  0  0
  7 13  1  0  0  0  0
  8  9  1  0  0  0  0
  8 20  1  0  0  0  0
  9 10  2  0  0  0  0
  9 19  1  0  0  0  0
 10 11  1  0  0  0  0
 10 32  1  0  0  0  0
 11 12  2  0  0  0  0
 11 33  1  0  0  0  0
 12 34  1  0  0  0  0
 13 14  2  0  0  0  0
 13 18  1  0  0  0  0
 14 15  1  0  0  0  0
 14 41  1  0  0  0  0
 15 16  2  0  0  0  0
 16 17  1  0  0  0  0
 17 18  2  0  0  0  0
 18 21  1  0  0  0  0
 21 40  1  0  0  0  0
 21 42  1  0  0  0  0
 22 35  1  0  0  0  0
 22 39  1  0  0  0  0
 22 43  1  0  0  0  0
 23 36  1  0  0  0  0
 23 37  1  0  0  0  0
 23 38  1  0  0  0  0
M  CHG  1  22   1
M  END
>  <ID>
Example 1

>  <IC50 uM>
0.258

$$$$
