Example 9
 OpenBabel02152110423D
Structure written by MMmdl.
 43 45  0  0  1  0  0  0  0  0999 V2000
   24.5464   41.3949    2.9263 N   0  0  0  0  0  0  0  0  0  0  0  0
   25.7503   40.5506    3.0678 C   0  0  0  0  0  0  0  0  0  0  0  0
   26.8709   41.3386    3.7371 C   0  0  0  0  0  0  0  0  0  0  0  0
   27.1915   42.6963    3.0590 C   0  0  0  0  0  0  0  0  0  0  0  0
   25.8970   43.4712    2.7117 C   0  0  0  0  0  0  0  0  0  0  0  0
   24.8154   42.5795    2.0867 C   0  0  0  0  0  0  0  0  0  0  0  0
   19.6840   40.5121    5.5351 C   0  0  0  0  0  0  0  0  0  0  0  0
   19.3973   40.8099    6.8784 C   0  0  0  0  0  0  0  0  0  0  0  0
   18.0967   40.6108    7.3636 C   0  0  0  0  0  0  0  0  0  0  0  0
   17.1071   40.1041    6.5219 C   0  0  0  0  0  0  0  0  0  0  0  0
   17.3987   39.8007    5.1957 C   0  0  0  0  0  0  0  0  0  0  0  0
   18.6780   40.0165    4.7027 C   0  0  0  0  0  0  0  0  0  0  0  0
   21.0250   40.7291    4.9494 C   0  0  0  0  0  0  0  0  0  0  0  0
   21.0676   41.7591    4.0708 N   0  0  0  0  0  0  0  0  0  0  0  0
   22.2387   42.0000    3.4418 C   0  0  0  0  0  0  0  0  0  0  0  0
   23.3752   41.2250    3.6683 C   0  0  0  0  0  0  0  0  0  0  0  0
   23.3242   40.1927    4.5641 N   0  0  0  0  0  0  0  0  0  0  0  0
   22.1526   39.9513    5.2085 C   0  0  0  0  0  0  0  0  0  0  0  0
   17.6773   41.0128    8.9912 Cl  0  0  0  0  0  0  0  0  0  0  0  0
   20.6231   41.4655    7.9185 Cl  0  0  0  0  0  0  0  0  0  0  0  0
   22.1265   38.8828    6.1041 N   0  0  0  0  0  0  0  0  0  0  0  0
   28.1625   43.5343    3.8924 C   0  0  0  0  0  0  0  0  0  0  0  0
   25.5587   39.6764    3.6932 H   0  0  0  0  0  0  0  0  0  0  0  0
   26.0969   40.1748    2.1061 H   0  0  0  0  0  0  0  0  0  0  0  0
   27.7908   40.7659    3.8607 H   0  0  0  0  0  0  0  0  0  0  0  0
   26.5127   41.4833    4.7526 H   0  0  0  0  0  0  0  0  0  0  0  0
   26.1111   44.3263    2.0672 H   0  0  0  0  0  0  0  0  0  0  0  0
   25.4516   43.9274    3.5976 H   0  0  0  0  0  0  0  0  0  0  0  0
   23.9414   43.2111    1.9643 H   0  0  0  0  0  0  0  0  0  0  0  0
   25.0798   42.2770    1.0727 H   0  0  0  0  0  0  0  0  0  0  0  0
   16.0992   39.9731    6.8871 H   0  0  0  0  0  0  0  0  0  0  0  0
   18.8916   39.7797    3.6691 H   0  0  0  0  0  0  0  0  0  0  0  0
   22.1946   42.8157    2.7405 H   0  0  0  0  0  0  0  0  0  0  0  0
   22.9841   38.3692    6.2894 H   0  0  0  0  0  0  0  0  0  0  0  0
   21.2832   38.6944    6.6229 H   0  0  0  0  0  0  0  0  0  0  0  0
   16.6388   39.4078    4.5399 H   0  0  0  0  0  0  0  0  0  0  0  0
   29.2212   43.2300    3.9016 H   0  0  0  0  0  0  0  0  0  0  0  0
   27.6786   43.5174    5.3054 N   0  3  0  0  0  0  0  0  0  0  0  0
   27.9748   44.5967    3.9512 H   0  0  0  0  0  0  0  0  0  0  0  0
   28.3182   44.0905    5.8559 H   0  0  0  0  0  0  0  0  0  0  0  0
   26.7558   43.9317    5.3912 H   0  0  0  0  0  0  0  0  0  0  0  0
   27.6585   42.4680    2.0998 H   0  0  0  0  0  0  0  0  0  0  0  0
   27.6933   42.6032    5.7389 H   0  0  0  0  0  0  0  0  0  0  0  0
  1  2  1  0  0  0  0
  1  6  1  0  0  0  0
  1 16  1  0  0  0  0
  2  3  1  0  0  0  0
  2 23  1  0  0  0  0
  2 24  1  0  0  0  0
  3  4  1  0  0  0  0
  3 25  1  0  0  0  0
  3 26  1  0  0  0  0
  4  5  1  0  0  0  0
  4 22  1  0  0  0  0
  4 42  1  0  0  0  0
  5  6  1  0  0  0  0
  5 27  1  0  0  0  0
  5 28  1  0  0  0  0
  6 29  1  0  0  0  0
  6 30  1  0  0  0  0
  7  8  2  0  0  0  0
  7 12  1  0  0  0  0
  7 13  1  0  0  0  0
  8  9  1  0  0  0  0
  8 20  1  0  0  0  0
  9 10  2  0  0  0  0
  9 19  1  0  0  0  0
 10 11  1  0  0  0  0
 10 31  1  0  0  0  0
 11 12  2  0  0  0  0
 11 36  1  0  0  0  0
 12 32  1  0  0  0  0
 13 14  2  0  0  0  0
 13 18  1  0  0  0  0
 14 15  1  0  0  0  0
 15 16  2  0  0  0  0
 15 33  1  0  0  0  0
 16 17  1  0  0  0  0
 17 18  2  0  0  0  0
 18 21  1  0  0  0  0
 21 34  1  0  0  0  0
 21 35  1  0  0  0  0
 22 37  1  0  0  0  0
 22 38  1  0  0  0  0
 22 39  1  0  0  0  0
 38 40  1  0  0  0  0
 38 41  1  0  0  0  0
 38 43  1  0  0  0  0
M  CHG  1  38   1
M  END
>  <ID>
Example 9

>  <IC50 uM>
0.358

$$$$
