SHP099-1/Example 7
 OpenBabel02152110423D
Structure written by MMmdl.
 43 45  0  0  1  0  0  0  0  0999 V2000
   24.5722   41.4017    2.9497 N   0  0  0  0  0  0  0  0  0  0  0  0
   24.8073   42.5904    2.1071 C   0  0  0  0  0  0  0  0  0  0  0  0
   25.8882   43.4955    2.7352 C   0  0  0  0  0  0  0  0  0  0  0  0
   27.1844   42.7081    3.0173 C   0  0  0  0  0  0  0  0  0  0  0  0
   26.8880   41.4066    3.7995 C   0  0  0  0  0  0  0  0  0  0  0  0
   25.7788   40.5760    3.1172 C   0  0  0  0  0  0  0  0  0  0  0  0
   19.6941   40.5278    5.5181 C   0  0  0  0  0  0  0  0  0  0  0  0
   19.4037   40.8004    6.8683 C   0  0  0  0  0  0  0  0  0  0  0  0
   18.1005   40.6055    7.3543 C   0  0  0  0  0  0  0  0  0  0  0  0
   17.1024   40.1270    6.5070 C   0  0  0  0  0  0  0  0  0  0  0  0
   17.3911   39.8460    5.1764 C   0  0  0  0  0  0  0  0  0  0  0  0
   18.6755   40.0507    4.6853 C   0  0  0  0  0  0  0  0  0  0  0  0
   21.0420   40.7304    4.9310 C   0  0  0  0  0  0  0  0  0  0  0  0
   21.0963   41.7469    4.0374 N   0  0  0  0  0  0  0  0  0  0  0  0
   22.2680   41.9826    3.4209 C   0  0  0  0  0  0  0  0  0  0  0  0
   23.3992   41.2013    3.6601 C   0  0  0  0  0  0  0  0  0  0  0  0
   23.3400   40.1644    4.5484 N   0  0  0  0  0  0  0  0  0  0  0  0
   22.1710   39.9440    5.2012 C   0  0  0  0  0  0  0  0  0  0  0  0
   17.6893   40.9440    9.0001 Cl  0  0  0  0  0  0  0  0  0  0  0  0
   20.6364   41.3873    7.9395 Cl  0  0  0  0  0  0  0  0  0  0  0  0
   22.1416   38.8888    6.1136 N   0  0  0  0  0  0  0  0  0  0  0  0
   28.0989   43.5943    3.8660 N   0  3  0  0  0  0  0  0  0  0  0  0
   27.9436   42.4192    1.7238 C   0  0  0  0  0  0  0  0  0  0  0  0
   25.0503   42.2737    1.0942 H   0  0  0  0  0  0  0  0  0  0  0  0
   23.9119   43.1848    1.9547 H   0  0  0  0  0  0  0  0  0  0  0  0
   25.4859   43.9463    3.6444 H   0  0  0  0  0  0  0  0  0  0  0  0
   26.0860   44.3382    2.0668 H   0  0  0  0  0  0  0  0  0  0  0  0
   26.5729   41.6227    4.8160 H   0  0  0  0  0  0  0  0  0  0  0  0
   27.7863   40.7975    3.9041 H   0  0  0  0  0  0  0  0  0  0  0  0
   26.0871   40.2123    2.1375 H   0  0  0  0  0  0  0  0  0  0  0  0
   25.5582   39.6711    3.6882 H   0  0  0  0  0  0  0  0  0  0  0  0
   16.0966   39.9833    6.8773 H   0  0  0  0  0  0  0  0  0  0  0  0
   16.6181   39.4786    4.5197 H   0  0  0  0  0  0  0  0  0  0  0  0
   18.8774   39.8300    3.6455 H   0  0  0  0  0  0  0  0  0  0  0  0
   22.2396   42.8343    2.7649 H   0  0  0  0  0  0  0  0  0  0  0  0
   21.2965   38.6913    6.6248 H   0  0  0  0  0  0  0  0  0  0  0  0
   22.9864   38.3512    6.2928 H   0  0  0  0  0  0  0  0  0  0  0  0
   28.9778   43.1202    4.0164 H   0  0  0  0  0  0  0  0  0  0  0  0
   28.2718   44.4626    3.3564 H   0  0  0  0  0  0  0  0  0  0  0  0
   27.3240   41.8322    1.0495 H   0  0  0  0  0  0  0  0  0  0  0  0
   28.8549   41.8535    1.9210 H   0  0  0  0  0  0  0  0  0  0  0  0
   28.2173   43.3396    1.2082 H   0  0  0  0  0  0  0  0  0  0  0  0
   27.6680   43.8147    4.7509 H   0  0  0  0  0  0  0  0  0  0  0  0
  1  2  1  0  0  0  0
  1  6  1  0  0  0  0
  1 16  1  0  0  0  0
  2  3  1  0  0  0  0
  2 24  1  0  0  0  0
  2 25  1  0  0  0  0
  3  4  1  0  0  0  0
  3 26  1  0  0  0  0
  3 27  1  0  0  0  0
  4  5  1  0  0  0  0
  4 22  1  0  0  0  0
  4 23  1  0  0  0  0
  5  6  1  0  0  0  0
  5 28  1  0  0  0  0
  5 29  1  0  0  0  0
  6 30  1  0  0  0  0
  6 31  1  0  0  0  0
  7  8  2  0  0  0  0
  7 12  1  0  0  0  0
  7 13  1  0  0  0  0
  8  9  1  0  0  0  0
  8 20  1  0  0  0  0
  9 10  2  0  0  0  0
  9 19  1  0  0  0  0
 10 11  1  0  0  0  0
 10 32  1  0  0  0  0
 11 12  2  0  0  0  0
 11 33  1  0  0  0  0
 12 34  1  0  0  0  0
 13 14  2  0  0  0  0
 13 18  1  0  0  0  0
 14 15  1  0  0  0  0
 15 16  2  0  0  0  0
 15 35  1  0  0  0  0
 16 17  1  0  0  0  0
 17 18  2  0  0  0  0
 18 21  1  0  0  0  0
 21 36  1  0  0  0  0
 21 37  1  0  0  0  0
 22 38  1  0  0  0  0
 22 39  1  0  0  0  0
 22 43  1  0  0  0  0
 23 40  1  0  0  0  0
 23 41  1  0  0  0  0
 23 42  1  0  0  0  0
M  CHG  1  22   1
M  END
>  <ID>
SHP099-1/Example 7

>  <IC50 uM>
0.071

$$$$
