@<TRIPOS>MOLECULE
Example 22
 43 45 0 0 0
SMALL
GASTEIGER
****
Structure written by MMmdl.
@<TRIPOS>ATOM
      1 N          24.5395   41.6049    3.1578 N.pl3   1  LIG1       -0.3126
      2 C          24.8999   42.8662    2.5072 C.3     1  LIG1        0.0189
      3 C          26.2796   43.3664    2.9523 C.3     1  LIG1        0.0086
      4 C          27.3815   42.3279    2.6866 C.3     1  LIG1       -0.0135
      5 C          26.9458   40.9995    3.3439 C.3     1  LIG1        0.0086
      6 C          25.5393   40.5572    2.8667 C.3     1  LIG1        0.0189
      7 C          19.6658   40.5877    5.7494 C.ar    1  LIG1        0.0235
      8 C          19.5101   40.8644    7.1230 C.ar    1  LIG1        0.0685
      9 C          18.3019   40.5656    7.7663 C.ar    1  LIG1        0.0599
     10 C          17.2448   40.0200    7.0430 C.ar    1  LIG1       -0.0419
     11 C          17.3911   39.7426    5.6865 C.ar    1  LIG1       -0.0597
     12 C          18.5948   40.0214    5.0464 C.ar    1  LIG1       -0.0510
     13 C          20.9506   40.8311    5.0393 C.ar    1  LIG1        0.1132
     14 N          20.9222   41.7408    4.0321 N.ar    1  LIG1       -0.2330
     15 C          22.0724   42.0023    3.3571 C.ar    1  LIG1        0.1468
     16 C          23.2821   41.3525    3.6978 C.ar    1  LIG1        0.1561
     17 N          23.2822   40.4119    4.6800 N.ar    1  LIG1       -0.2129
     18 C          22.1374   40.1598    5.3456 C.ar    1  LIG1        0.1446
     19 CL         18.0811   40.8514    9.4592 Cl      1  LIG1       -0.0820
     20 CL         20.7877   41.6202    8.0217 Cl      1  LIG1       -0.0814
     21 N          22.2064   39.2134    6.3526 N.pl3   1  LIG1       -0.3414
     22 N          28.6518   42.8205    3.3925 N.4     1  LIG1        0.2228
     23 C          27.7192   42.1830    1.1873 C.3     1  LIG1       -0.0187
     24 H          24.8060   42.7849    1.4224 H       1  LIG1        0.0466
     25 H          24.2071   43.6203    2.8514 H       1  LIG1        0.0466
     26 H          26.2187   43.6200    4.0124 H       1  LIG1        0.0338
     27 H          26.4809   44.3100    2.4460 H       1  LIG1        0.0338
     28 H          26.9083   41.0885    4.4322 H       1  LIG1        0.0338
     29 H          27.6786   40.2175    3.1547 H       1  LIG1        0.0338
     30 H          25.5294   40.3513    1.7952 H       1  LIG1        0.0466
     31 H          25.2850   39.6205    3.3614 H       1  LIG1        0.0466
     32 H          16.3102   39.7963    7.5376 H       1  LIG1        0.0633
     33 H          18.6982   39.7803    3.9951 H       1  LIG1        0.0625
     34 BR         21.8404   43.2207    1.9002 Br      1  LIG1       -0.0251
     35 H          23.0751   38.7102    6.5111 H       1  LIG1        0.1438
     36 H          21.3652   38.9553    6.8422 H       1  LIG1        0.1438
     37 H          29.4272   42.2022    3.1879 H       1  LIG1        0.1999
     38 H          26.8613   41.8500    0.6054 H       1  LIG1        0.0287
     39 H          28.5187   41.4571    1.0264 H       1  LIG1        0.0287
     40 H          28.0402   43.1320    0.7525 H       1  LIG1        0.0287
     41 H          28.8750   43.7542    3.0739 H       1  LIG1        0.1999
     42 H          16.5761   39.2981    5.1323 H       1  LIG1        0.0618
     43 H          28.5166   42.8522    4.3941 H       1  LIG1        0.1999
@<TRIPOS>BOND
     1     1     2    1
     2     1     6    1
     3     1    16    1
     4     2     3    1
     5     2    24    1
     6     2    25    1
     7     3     4    1
     8     3    26    1
     9     3    27    1
    10     4     5    1
    11     4    22    1
    12     4    23    1
    13     5     6    1
    14     5    28    1
    15     5    29    1
    16     6    30    1
    17     6    31    1
    18     7     8   ar
    19     7    12   ar
    20     7    13    1
    21     8     9   ar
    22     8    20    1
    23     9    10   ar
    24     9    19    1
    25    10    11   ar
    26    10    32    1
    27    11    12   ar
    28    11    42    1
    29    12    33    1
    30    13    14   ar
    31    13    18   ar
    32    14    15   ar
    33    15    16   ar
    34    15    34    1
    35    16    17   ar
    36    17    18   ar
    37    18    21    1
    38    21    35    1
    39    21    36    1
    40    22    37    1
    41    22    41    1
    42    22    43    1
    43    23    38    1
    44    23    39    1
    45    23    40    1
