Example 4
 OpenBabel02152110423D
Structure written by MMmdl.
 43 45  0  0  1  0  0  0  0  0999 V2000
   24.5430   41.4114    2.9550 N   0  0  0  0  0  0  0  0  0  0  0  0
   25.7642   40.5993    3.0891 C   0  0  0  0  0  0  0  0  0  0  0  0
   26.8786   41.4166    3.7666 C   0  0  0  0  0  0  0  0  0  0  0  0
   27.2006   42.7127    3.0029 C   0  0  0  0  0  0  0  0  0  0  0  0
   25.8937   43.4892    2.7374 C   0  0  0  0  0  0  0  0  0  0  0  0
   24.8050   42.5910    2.1109 C   0  0  0  0  0  0  0  0  0  0  0  0
   21.0144   40.7174    4.9510 C   0  0  0  0  0  0  0  0  0  0  0  0
   21.1677   41.7795    4.0783 C   0  0  0  0  0  0  0  0  0  0  0  0
   22.3249   42.0375    3.4270 N   0  0  0  0  0  0  0  0  0  0  0  0
   23.3661   41.2020    3.6845 C   0  0  0  0  0  0  0  0  0  0  0  0
   23.3235   40.1654    4.5608 N   0  0  0  0  0  0  0  0  0  0  0  0
   22.1453   39.9248    5.1862 C   0  0  0  0  0  0  0  0  0  0  0  0
   22.0944   38.8546    6.0735 N   0  0  0  0  0  0  0  0  0  0  0  0
   28.0809   43.5947    3.9100 N   0  3  0  0  0  0  0  0  0  0  0  0
   27.9740   42.4207    1.6938 C   0  0  0  0  0  0  0  0  0  0  0  0
   26.0828   40.2778    2.0962 H   0  0  0  0  0  0  0  0  0  0  0  0
   25.5977   39.6787    3.6476 H   0  0  0  0  0  0  0  0  0  0  0  0
   26.5281   41.6511    4.7617 H   0  0  0  0  0  0  0  0  0  0  0  0
   27.7693   40.8029    3.8916 H   0  0  0  0  0  0  0  0  0  0  0  0
   25.4814   43.9202    3.6497 H   0  0  0  0  0  0  0  0  0  0  0  0
   26.0840   44.3456    2.0896 H   0  0  0  0  0  0  0  0  0  0  0  0
   25.0984   42.2408    1.1213 H   0  0  0  0  0  0  0  0  0  0  0  0
   23.9190   43.2070    1.9498 H   0  0  0  0  0  0  0  0  0  0  0  0
   28.9707   43.1542    4.0991 H   0  0  0  0  0  0  0  0  0  0  0  0
   28.8895   41.8542    1.8809 H   0  0  0  0  0  0  0  0  0  0  0  0
   28.2450   43.3369    1.1662 H   0  0  0  0  0  0  0  0  0  0  0  0
   27.3855   41.8245    0.9924 H   0  0  0  0  0  0  0  0  0  0  0  0
   28.2454   44.4799    3.4324 H   0  0  0  0  0  0  0  0  0  0  0  0
   22.9535   38.3533    6.2811 H   0  0  0  0  0  0  0  0  0  0  0  0
   20.3465   42.4591    3.9019 H   0  0  0  0  0  0  0  0  0  0  0  0
   21.2404   38.6627    6.5726 H   0  0  0  0  0  0  0  0  0  0  0  0
   19.7006   40.4765    5.5478 C   0  0  0  0  0  0  0  0  0  0  0  0
   18.5441   40.0185    4.9425 C   0  0  0  0  0  0  0  0  0  0  0  0
   17.4703   39.9918    5.8252 C   0  0  0  0  0  0  0  0  0  0  0  0
   17.7949   40.4352    7.0994 C   0  0  0  0  0  0  0  0  0  0  0  0
   19.4745   40.8098    7.2203 S   0  0  0  0  0  0  0  0  0  0  0  0
   18.4766   39.7097    3.9112 H   0  0  0  0  0  0  0  0  0  0  0  0
   16.4831   39.6652    5.5342 H   0  0  0  0  0  0  0  0  0  0  0  0
   16.9032   40.6023    8.2756 C   0  0  0  0  0  0  0  0  0  0  0  0
   16.7941   41.6460    8.5777 H   0  0  0  0  0  0  0  0  0  0  0  0
   17.2872   40.0431    9.1251 H   0  0  0  0  0  0  0  0  0  0  0  0
   15.9194   40.2081    8.0272 H   0  0  0  0  0  0  0  0  0  0  0  0
   27.6324   43.8025    4.7935 H   0  0  0  0  0  0  0  0  0  0  0  0
  1  2  1  0  0  0  0
  1  6  1  0  0  0  0
  1 10  1  0  0  0  0
  2  3  1  0  0  0  0
  2 16  1  0  0  0  0
  2 17  1  0  0  0  0
  3  4  1  0  0  0  0
  3 18  1  0  0  0  0
  3 19  1  0  0  0  0
  4  5  1  0  0  0  0
  4 14  1  0  0  0  0
  4 15  1  0  0  0  0
  5  6  1  0  0  0  0
  5 20  1  0  0  0  0
  5 21  1  0  0  0  0
  6 22  1  0  0  0  0
  6 23  1  0  0  0  0
  7  8  2  0  0  0  0
  7 12  1  0  0  0  0
  7 32  1  0  0  0  0
  8  9  1  0  0  0  0
  8 30  1  0  0  0  0
  9 10  2  0  0  0  0
 10 11  1  0  0  0  0
 11 12  2  0  0  0  0
 12 13  1  0  0  0  0
 13 29  1  0  0  0  0
 13 31  1  0  0  0  0
 14 24  1  0  0  0  0
 14 28  1  0  0  0  0
 14 43  1  0  0  0  0
 15 25  1  0  0  0  0
 15 26  1  0  0  0  0
 15 27  1  0  0  0  0
 32 33  2  0  0  0  0
 32 36  1  0  0  0  0
 33 34  1  0  0  0  0
 33 37  1  0  0  0  0
 34 35  2  0  0  0  0
 34 38  1  0  0  0  0
 35 36  1  0  0  0  0
 35 39  1  0  0  0  0
 39 40  1  0  0  0  0
 39 41  1  0  0  0  0
 39 42  1  0  0  0  0
M  CHG  1  14   1
M  END
>  <ID>
Example 4

>  <IC50 uM>
0.974

$$$$
