Example 3
 OpenBabel02152110423D
Structure written by MMmdl.
 40 42  0  0  1  0  0  0  0  0999 V2000
   24.5401   41.3989    2.9532 N   0  0  0  0  0  0  0  0  0  0  0  0
   24.8051   42.5811    2.1091 C   0  0  0  0  0  0  0  0  0  0  0  0
   25.8867   43.4859    2.7414 C   0  0  0  0  0  0  0  0  0  0  0  0
   27.1959   42.7112    3.0057 C   0  0  0  0  0  0  0  0  0  0  0  0
   26.8794   41.4168    3.7759 C   0  0  0  0  0  0  0  0  0  0  0  0
   25.7664   40.5923    3.1008 C   0  0  0  0  0  0  0  0  0  0  0  0
   21.0145   40.7222    4.9516 C   0  0  0  0  0  0  0  0  0  0  0  0
   21.1622   41.7734    4.0578 C   0  0  0  0  0  0  0  0  0  0  0  0
   22.3208   42.0228    3.4091 N   0  0  0  0  0  0  0  0  0  0  0  0
   23.3684   41.1984    3.6775 C   0  0  0  0  0  0  0  0  0  0  0  0
   23.3236   40.1664    4.5710 N   0  0  0  0  0  0  0  0  0  0  0  0
   22.1459   39.9363    5.1958 C   0  0  0  0  0  0  0  0  0  0  0  0
   22.1027   38.8666    6.0810 N   0  0  0  0  0  0  0  0  0  0  0  0
   28.0896   43.5958    3.9002 N   0  3  0  0  0  0  0  0  0  0  0  0
   27.9640   42.4179    1.7000 C   0  0  0  0  0  0  0  0  0  0  0  0
   25.0995   42.2499    1.1137 H   0  0  0  0  0  0  0  0  0  0  0  0
   23.9127   43.1864    1.9546 H   0  0  0  0  0  0  0  0  0  0  0  0
   25.4693   43.9239    3.6497 H   0  0  0  0  0  0  0  0  0  0  0  0
   26.0748   44.3406    2.0903 H   0  0  0  0  0  0  0  0  0  0  0  0
   26.5404   41.6483    4.7775 H   0  0  0  0  0  0  0  0  0  0  0  0
   27.7726   40.8054    3.9001 H   0  0  0  0  0  0  0  0  0  0  0  0
   26.0868   40.2603    2.1152 H   0  0  0  0  0  0  0  0  0  0  0  0
   25.5901   39.6802    3.6671 H   0  0  0  0  0  0  0  0  0  0  0  0
   28.9764   43.1472    4.0723 H   0  0  0  0  0  0  0  0  0  0  0  0
   27.3702   41.8206    1.0036 H   0  0  0  0  0  0  0  0  0  0  0  0
   28.8797   41.8544    1.8898 H   0  0  0  0  0  0  0  0  0  0  0  0
   28.2303   43.3358    1.1767 H   0  0  0  0  0  0  0  0  0  0  0  0
   28.2507   44.4725    3.4086 H   0  0  0  0  0  0  0  0  0  0  0  0
   22.9628   38.3587    6.2652 H   0  0  0  0  0  0  0  0  0  0  0  0
   20.3462   42.4465    3.8573 H   0  0  0  0  0  0  0  0  0  0  0  0
   21.2513   38.6714    6.5822 H   0  0  0  0  0  0  0  0  0  0  0  0
   19.6898   40.4893    5.5418 C   0  0  0  0  0  0  0  0  0  0  0  0
   18.5442   40.0172    4.9256 C   0  0  0  0  0  0  0  0  0  0  0  0
   17.4539   39.9740    5.7859 C   0  0  0  0  0  0  0  0  0  0  0  0
   17.7753   40.4507    7.0396 C   0  0  0  0  0  0  0  0  0  0  0  0
   19.4367   40.8750    7.2092 S   0  0  0  0  0  0  0  0  0  0  0  0
   18.5049   39.6859    3.8981 H   0  0  0  0  0  0  0  0  0  0  0  0
   16.4770   39.6243    5.4935 H   0  0  0  0  0  0  0  0  0  0  0  0
   16.7315   40.6794    8.3518 Cl  0  0  0  0  0  0  0  0  0  0  0  0
   27.6528   43.8098    4.7840 H   0  0  0  0  0  0  0  0  0  0  0  0
  1  2  1  0  0  0  0
  1  6  1  0  0  0  0
  1 10  1  0  0  0  0
  2  3  1  0  0  0  0
  2 16  1  0  0  0  0
  2 17  1  0  0  0  0
  3  4  1  0  0  0  0
  3 18  1  0  0  0  0
  3 19  1  0  0  0  0
  4  5  1  0  0  0  0
  4 14  1  0  0  0  0
  4 15  1  0  0  0  0
  5  6  1  0  0  0  0
  5 20  1  0  0  0  0
  5 21  1  0  0  0  0
  6 22  1  0  0  0  0
  6 23  1  0  0  0  0
  7  8  2  0  0  0  0
  7 12  1  0  0  0  0
  7 32  1  0  0  0  0
  8  9  1  0  0  0  0
  8 30  1  0  0  0  0
  9 10  2  0  0  0  0
 10 11  1  0  0  0  0
 11 12  2  0  0  0  0
 12 13  1  0  0  0  0
 13 29  1  0  0  0  0
 13 31  1  0  0  0  0
 14 24  1  0  0  0  0
 14 28  1  0  0  0  0
 14 40  1  0  0  0  0
 15 25  1  0  0  0  0
 15 26  1  0  0  0  0
 15 27  1  0  0  0  0
 32 33  2  0  0  0  0
 32 36  1  0  0  0  0
 33 34  1  0  0  0  0
 33 37  1  0  0  0  0
 34 35  2  0  0  0  0
 34 38  1  0  0  0  0
 35 36  1  0  0  0  0
 35 39  1  0  0  0  0
M  CHG  1  14   1
M  END
>  <ID>
Example 3

>  <IC50 uM>
0.95

$$$$
