@<TRIPOS>MOLECULE
Example 30
 42 44 0 0 0
SMALL
GASTEIGER
****
Structure written by MMmdl.
@<TRIPOS>ATOM
      1 N          24.5353   41.3991    2.9617 N.pl3   1  LIG1       -0.2980
      2 C          24.7904   42.5868    2.1178 C.3     1  LIG1        0.0203
      3 C          25.8810   43.4864    2.7374 C.3     1  LIG1        0.0087
      4 C          27.1904   42.7177    3.0202 C.3     1  LIG1       -0.0135
      5 C          26.8799   41.4106    3.7771 C.3     1  LIG1        0.0087
      6 C          25.7613   40.5911    3.1100 C.3     1  LIG1        0.0203
      7 C          19.6930   40.5254    5.5288 C.ar    1  LIG1        0.0252
      8 C          19.4034   40.8157    6.8758 C.ar    1  LIG1        0.0686
      9 C          18.1082   40.6044    7.3696 C.ar    1  LIG1        0.0599
     10 C          17.1167   40.0887    6.5328 C.ar    1  LIG1       -0.0419
     11 C          17.4098   39.7819    5.2071 C.ar    1  LIG1       -0.0597
     12 C          18.6895   40.0203    4.7125 C.ar    1  LIG1       -0.0509
     13 C          21.0365   40.7490    4.9467 C.ar    1  LIG1        0.1342
     14 N          21.1333   41.7708    4.0585 N.ar    1  LIG1       -0.1424
     15 N          22.2940   41.9986    3.4273 N.ar    1  LIG1       -0.1124
     16 C          23.3597   41.1910    3.6865 C.ar    1  LIG1        0.2393
     17 N          23.3270   40.1643    4.5796 N.ar    1  LIG1       -0.1963
     18 C          22.1528   39.9456    5.2064 C.ar    1  LIG1        0.1479
     19 CL         17.6833   41.0096    8.9986 Cl      1  LIG1       -0.0820
     20 CL         20.6245   41.4803    7.9166 Cl      1  LIG1       -0.0814
     21 N          22.1086   38.8756    6.0941 N.pl3   1  LIG1       -0.3413
     22 N          28.0640   43.6032    3.9216 N.4     1  LIG1        0.2228
     23 C          27.9783   42.4349    1.7217 C.3     1  LIG1       -0.0187
     24 H          25.0622   42.2702    1.1121 H       1  LIG1        0.0467
     25 H          23.8919   43.1904    1.9925 H       1  LIG1        0.0467
     26 H          25.4681   43.9379    3.6411 H       1  LIG1        0.0338
     27 H          26.0761   44.3323    2.0760 H       1  LIG1        0.0338
     28 H          26.5552   41.6277    4.7883 H       1  LIG1        0.0338
     29 H          27.7778   40.8018    3.8837 H       1  LIG1        0.0338
     30 H          26.0791   40.2303    2.1341 H       1  LIG1        0.0467
     31 H          25.5850   39.6899    3.6945 H       1  LIG1        0.0467
     32 H          16.1095   39.9553    6.9017 H       1  LIG1        0.0633
     33 H          16.6477   39.3919    4.5519 H       1  LIG1        0.0618
     34 H          18.8949   39.7782    3.6715 H       1  LIG1        0.0625
     35 H          22.9746   38.3788    6.2904 H       1  LIG1        0.1438
     36 H          21.2689   38.6932    6.6209 H       1  LIG1        0.1438
     37 H          28.9333   43.1400    4.1444 H       1  LIG1        0.1999
     38 H          27.4275   41.7736    1.0493 H       1  LIG1        0.0287
     39 H          28.9366   41.9502    1.9281 H       1  LIG1        0.0287
     40 H          28.1799   43.3541    1.1679 H       1  LIG1        0.0287
     41 H          28.2675   44.4651    3.4205 H       1  LIG1        0.1999
     42 H          27.5917   43.8449    4.7797 H       1  LIG1        0.1999
@<TRIPOS>BOND
     1     1     2    1
     2     1     6    1
     3     1    16    1
     4     2     3    1
     5     2    24    1
     6     2    25    1
     7     3     4    1
     8     3    26    1
     9     3    27    1
    10     4     5    1
    11     4    22    1
    12     4    23    1
    13     5     6    1
    14     5    28    1
    15     5    29    1
    16     6    30    1
    17     6    31    1
    18     7     8   ar
    19     7    12   ar
    20     7    13    1
    21     8     9   ar
    22     8    20    1
    23     9    10   ar
    24     9    19    1
    25    10    11   ar
    26    10    32    1
    27    11    12   ar
    28    11    33    1
    29    12    34    1
    30    13    14   ar
    31    13    18   ar
    32    14    15   ar
    33    15    16   ar
    34    16    17   ar
    35    17    18   ar
    36    18    21    1
    37    21    35    1
    38    21    36    1
    39    22    37    1
    40    22    41    1
    41    22    42    1
    42    23    38    1
    43    23    39    1
    44    23    40    1
