Example 5
 OpenBabel02152110423D
Structure written by MMmdl.
 47 49  0  0  1  0  0  0  0  0999 V2000
   24.7241   41.2613    2.6346 N   0  0  0  0  0  0  0  0  0  0  0  0
   25.8333   40.2945    2.6700 C   0  0  0  0  0  0  0  0  0  0  0  0
   26.9699   40.8429    3.5529 C   0  0  0  0  0  0  0  0  0  0  0  0
   27.4505   42.2668    3.1409 C   0  0  0  0  0  0  0  0  0  0  0  0
   26.3237   43.1539    2.5080 C   0  0  0  0  0  0  0  0  0  0  0  0
   25.1614   42.4028    1.8201 C   0  0  0  0  0  0  0  0  0  0  0  0
   20.0829   40.6840    5.7737 C   0  0  0  0  0  0  0  0  0  0  0  0
   20.0391   40.8338    7.1767 C   0  0  0  0  0  0  0  0  0  0  0  0
   18.8298   40.7034    7.8687 C   0  0  0  0  0  0  0  0  0  0  0  0
   17.6817   40.3910    7.1941 C   0  0  0  0  0  0  0  0  0  0  0  0
   17.6939   40.2193    5.8132 C   0  0  0  0  0  0  0  0  0  0  0  0
   18.8855   40.3853    5.1133 C   0  0  0  0  0  0  0  0  0  0  0  0
   21.3243   40.8337    4.9480 C   0  0  0  0  0  0  0  0  0  0  0  0
   21.3462   41.8381    4.0268 C   0  0  0  0  0  0  0  0  0  0  0  0
   22.4822   42.0243    3.3029 N   0  0  0  0  0  0  0  0  0  0  0  0
   23.6278   41.2327    3.4968 C   0  0  0  0  0  0  0  0  0  0  0  0
   23.5916   40.2239    4.4038 N   0  0  0  0  0  0  0  0  0  0  0  0
   22.4598   40.0202    5.1184 C   0  0  0  0  0  0  0  0  0  0  0  0
   18.6695   40.7956    9.5758 Cl  0  0  0  0  0  0  0  0  0  0  0  0
   21.4608   41.0419    8.1147 Cl  0  0  0  0  0  0  0  0  0  0  0  0
   22.4732   38.9282    5.9702 N   0  0  0  0  0  0  0  0  0  0  0  0
   28.4859   42.0190    2.0282 C   0  0  0  0  0  0  0  0  0  0  0  0
   28.1467   42.9714    4.2285 N   0  3  0  0  0  0  0  0  0  0  0  0
   25.5078   39.3196    3.0310 H   0  0  0  0  0  0  0  0  0  0  0  0
   26.1989   40.1160    1.6558 H   0  0  0  0  0  0  0  0  0  0  0  0
   27.7954   40.1259    3.5498 H   0  0  0  0  0  0  0  0  0  0  0  0
   26.6252   40.8384    4.5927 H   0  0  0  0  0  0  0  0  0  0  0  0
   26.7345   43.8649    1.7863 H   0  0  0  0  0  0  0  0  0  0  0  0
   25.8911   43.7981    3.2771 H   0  0  0  0  0  0  0  0  0  0  0  0
   24.3292   43.0802    1.6218 H   0  0  0  0  0  0  0  0  0  0  0  0
   25.4809   42.0664    0.8308 H   0  0  0  0  0  0  0  0  0  0  0  0
   16.7922   40.2785    7.7937 H   0  0  0  0  0  0  0  0  0  0  0  0
   16.5632   39.9184    5.1087 O   0  0  0  0  0  0  0  0  0  0  0  0
   18.8724   40.2684    4.0412 H   0  0  0  0  0  0  0  0  0  0  0  0
   23.3386   38.4221    6.1486 H   0  0  0  0  0  0  0  0  0  0  0  0
   21.6432   38.7023    6.4991 H   0  0  0  0  0  0  0  0  0  0  0  0
   15.3468   39.8935    5.8343 C   0  0  0  0  0  0  0  0  0  0  0  0
   14.5261   39.9323    5.1461 H   0  0  0  0  0  0  0  0  0  0  0  0
   15.2219   40.7801    6.4384 H   0  0  0  0  0  0  0  0  0  0  0  0
   15.2618   39.0000    6.4563 H   0  0  0  0  0  0  0  0  0  0  0  0
   28.9929   42.8697    1.5493 H   0  0  0  0  0  0  0  0  0  0  0  0
   28.0337   41.3963    1.2563 H   0  0  0  0  0  0  0  0  0  0  0  0
   29.2374   41.3190    2.3934 H   0  0  0  0  0  0  0  0  0  0  0  0
   28.4351   43.8848    3.9081 H   0  0  0  0  0  0  0  0  0  0  0  0
   27.5241   43.0729    5.0173 H   0  0  0  0  0  0  0  0  0  0  0  0
   28.9594   42.4405    4.5074 H   0  0  0  0  0  0  0  0  0  0  0  0
   20.4755   42.4616    3.8869 H   0  0  0  0  0  0  0  0  0  0  0  0
  1  2  1  0  0  0  0
  1  6  1  0  0  0  0
  1 16  1  0  0  0  0
  2  3  1  0  0  0  0
  2 24  1  0  0  0  0
  2 25  1  0  0  0  0
  3  4  1  0  0  0  0
  3 26  1  0  0  0  0
  3 27  1  0  0  0  0
  4  5  1  0  0  0  0
  4 22  1  0  0  0  0
  4 23  1  0  0  0  0
  5  6  1  0  0  0  0
  5 28  1  0  0  0  0
  5 29  1  0  0  0  0
  6 30  1  0  0  0  0
  6 31  1  0  0  0  0
  7  8  2  0  0  0  0
  7 12  1  0  0  0  0
  7 13  1  0  0  0  0
  8  9  1  0  0  0  0
  8 20  1  0  0  0  0
  9 10  2  0  0  0  0
  9 19  1  0  0  0  0
 10 11  1  0  0  0  0
 10 32  1  0  0  0  0
 11 12  2  0  0  0  0
 11 33  1  0  0  0  0
 12 34  1  0  0  0  0
 13 14  2  0  0  0  0
 13 18  1  0  0  0  0
 14 15  1  0  0  0  0
 14 47  1  0  0  0  0
 15 16  2  0  0  0  0
 16 17  1  0  0  0  0
 17 18  2  0  0  0  0
 18 21  1  0  0  0  0
 21 35  1  0  0  0  0
 21 36  1  0  0  0  0
 22 41  1  0  0  0  0
 22 42  1  0  0  0  0
 22 43  1  0  0  0  0
 23 44  1  0  0  0  0
 23 45  1  0  0  0  0
 23 46  1  0  0  0  0
 33 37  1  0  0  0  0
 37 38  1  0  0  0  0
 37 39  1  0  0  0  0
 37 40  1  0  0  0  0
M  CHG  1  23   1
M  END
>  <ID>
Example 5

>  <IC50 uM>
2.859

$$$$
