@<TRIPOS>MOLECULE
Example 4
 43 45 0 0 0
SMALL
GASTEIGER
****
Structure written by MMmdl.
@<TRIPOS>ATOM
      1 N          24.5430   41.4114    2.9550 N.pl3   1  LIG1       -0.2992
      2 C          25.7642   40.5993    3.0891 C.3     1  LIG1        0.0202
      3 C          26.8786   41.4166    3.7666 C.3     1  LIG1        0.0087
      4 C          27.2006   42.7127    3.0029 C.3     1  LIG1       -0.0135
      5 C          25.8937   43.4892    2.7374 C.3     1  LIG1        0.0087
      6 C          24.8050   42.5910    2.1109 C.3     1  LIG1        0.0202
      7 C          21.0144   40.7174    4.9510 C.ar    1  LIG1        0.0464
      8 C          21.1677   41.7795    4.0783 C.ar    1  LIG1        0.0427
      9 N          22.3249   42.0375    3.4270 N.ar    1  LIG1       -0.2220
     10 C          23.3661   41.2020    3.6845 C.ar    1  LIG1        0.2195
     11 N          23.3235   40.1654    4.5608 N.ar    1  LIG1       -0.1992
     12 C          22.1453   39.9248    5.1862 C.ar    1  LIG1        0.1295
     13 N          22.0944   38.8546    6.0735 N.pl3   1  LIG1       -0.3425
     14 N          28.0809   43.5947    3.9100 N.4     1  LIG1        0.2228
     15 C          27.9740   42.4207    1.6938 C.3     1  LIG1       -0.0187
     16 H          26.0828   40.2778    2.0962 H       1  LIG1        0.0467
     17 H          25.5977   39.6787    3.6476 H       1  LIG1        0.0467
     18 H          26.5281   41.6511    4.7617 H       1  LIG1        0.0338
     19 H          27.7693   40.8029    3.8916 H       1  LIG1        0.0338
     20 H          25.4814   43.9202    3.6497 H       1  LIG1        0.0338
     21 H          26.0840   44.3456    2.0896 H       1  LIG1        0.0338
     22 H          25.0984   42.2408    1.1213 H       1  LIG1        0.0467
     23 H          23.9190   43.2070    1.9498 H       1  LIG1        0.0467
     24 H          28.9707   43.1542    4.0991 H       1  LIG1        0.1999
     25 H          28.8895   41.8542    1.8809 H       1  LIG1        0.0287
     26 H          28.2450   43.3369    1.1662 H       1  LIG1        0.0287
     27 H          27.3855   41.8245    0.9924 H       1  LIG1        0.0287
     28 H          28.2454   44.4799    3.4324 H       1  LIG1        0.1999
     29 H          22.9535   38.3533    6.2811 H       1  LIG1        0.1437
     30 H          20.3465   42.4591    3.9019 H       1  LIG1        0.0838
     31 H          21.2404   38.6627    6.5726 H       1  LIG1        0.1437
     32 C          19.7006   40.4765    5.5478 C.ar    1  LIG1        0.0243
     33 C          18.5441   40.0185    4.9425 C.ar    1  LIG1       -0.0465
     34 C          17.4703   39.9918    5.8252 C.ar    1  LIG1       -0.0512
     35 C          17.7949   40.4352    7.0994 C.ar    1  LIG1       -0.0127
     36 S          19.4745   40.8098    7.2203 S.2     1  LIG1       -0.0933
     37 H          18.4766   39.7097    3.9112 H       1  LIG1        0.0629
     38 H          16.4831   39.6652    5.5342 H       1  LIG1        0.0626
     39 C          16.9032   40.6023    8.2756 C.3     1  LIG1       -0.0334
     40 H          16.7941   41.6460    8.5777 H       1  LIG1        0.0283
     41 H          17.2872   40.0431    9.1251 H       1  LIG1        0.0283
     42 H          15.9194   40.2081    8.0272 H       1  LIG1        0.0283
     43 H          27.6324   43.8025    4.7935 H       1  LIG1        0.1999
@<TRIPOS>BOND
     1     1     2    1
     2     1     6    1
     3     1    10    1
     4     2     3    1
     5     2    16    1
     6     2    17    1
     7     3     4    1
     8     3    18    1
     9     3    19    1
    10     4     5    1
    11     4    14    1
    12     4    15    1
    13     5     6    1
    14     5    20    1
    15     5    21    1
    16     6    22    1
    17     6    23    1
    18     7     8   ar
    19     7    12   ar
    20     7    32    1
    21     8     9   ar
    22     8    30    1
    23     9    10   ar
    24    10    11   ar
    25    11    12   ar
    26    12    13    1
    27    13    29    1
    28    13    31    1
    29    14    24    1
    30    14    28    1
    31    14    43    1
    32    15    25    1
    33    15    26    1
    34    15    27    1
    35    32    33   ar
    36    32    36   ar
    37    33    34   ar
    38    33    37    1
    39    34    35   ar
    40    34    38    1
    41    35    36   ar
    42    35    39    1
    43    39    40    1
    44    39    41    1
    45    39    42    1
