@<TRIPOS>MOLECULE
Example 23
 43 45 0 0 0
SMALL
GASTEIGER
****
Structure written by MMmdl.
@<TRIPOS>ATOM
      1 N          24.5404   41.5885    3.3090 N.pl3   1  LIG1       -0.3123
      2 C          24.8982   42.8207    2.6006 C.3     1  LIG1        0.0189
      3 C          26.2819   43.3367    3.0100 C.3     1  LIG1        0.0086
      4 C          27.3971   42.2987    2.8091 C.3     1  LIG1       -0.0135
      5 C          26.9514   40.9750    3.4735 C.3     1  LIG1        0.0086
      6 C          25.5365   40.5417    3.0039 C.3     1  LIG1        0.0189
      7 C          19.5908   40.5482    5.7796 C.ar    1  LIG1        0.0235
      8 C          19.3934   40.8482    7.1425 C.ar    1  LIG1        0.0685
      9 C          18.1521   40.5813    7.7423 C.ar    1  LIG1        0.0599
     10 C          17.1217   40.0191    6.9875 C.ar    1  LIG1       -0.0419
     11 C          17.3078   39.7413    5.6358 C.ar    1  LIG1       -0.0597
     12 C          18.5344   40.0192    5.0382 C.ar    1  LIG1       -0.0510
     13 C          20.9028   40.7687    5.1073 C.ar    1  LIG1        0.1136
     14 N          20.9078   41.7188    4.1417 N.ar    1  LIG1       -0.2283
     15 C          22.0632   41.9854    3.4794 C.ar    1  LIG1        0.1697
     16 C          23.2624   41.3076    3.8120 C.ar    1  LIG1        0.1606
     17 N          23.2282   40.3206    4.7525 N.ar    1  LIG1       -0.2125
     18 C          22.0678   40.0524    5.3940 C.ar    1  LIG1        0.1447
     19 CL         17.8605   40.9445    9.4073 Cl      1  LIG1       -0.0820
     20 CL         20.6492   41.6069    8.0667 Cl      1  LIG1       -0.0814
     21 N          22.0799   39.0352    6.3399 N.pl3   1  LIG1       -0.3414
     22 N          28.6403   42.8202    3.5448 N.4     1  LIG1        0.2228
     23 C          27.7928   42.1290    1.3299 C.3     1  LIG1       -0.0187
     24 H          24.8178   42.6857    1.5203 H       1  LIG1        0.0466
     25 H          24.2286   43.6152    2.9029 H       1  LIG1        0.0466
     26 H          26.2161   43.6207    4.0603 H       1  LIG1        0.0338
     27 H          26.4810   44.2580    2.4609 H       1  LIG1        0.0338
     28 H          26.9134   41.0715    4.5641 H       1  LIG1        0.0338
     29 H          27.6822   40.1891    3.2852 H       1  LIG1        0.0338
     30 H          25.5245   40.3383    1.9332 H       1  LIG1        0.0466
     31 H          25.2946   39.5971    3.4899 H       1  LIG1        0.0466
     32 H          16.1718   39.8031    7.4535 H       1  LIG1        0.0633
     33 H          18.6691   39.7720    3.9920 H       1  LIG1        0.0625
     34 CL         21.9002   43.1348    2.1934 Cl      1  LIG1       -0.0583
     35 H          21.2246   38.7897    6.8170 H       1  LIG1        0.1438
     36 H          22.9415   38.5372    6.5292 H       1  LIG1        0.1438
     37 H          29.4267   42.2097    3.3639 H       1  LIG1        0.1999
     38 H          26.9724   41.7611    0.7163 H       1  LIG1        0.0287
     39 H          28.6122   41.4170    1.2248 H       1  LIG1        0.0287
     40 H          28.1175   43.0722    0.8894 H       1  LIG1        0.0287
     41 H          28.8625   43.7498    3.2184 H       1  LIG1        0.1999
     42 H          16.5085   39.3000    5.0566 H       1  LIG1        0.0618
     43 H          28.4824   42.8752    4.5419 H       1  LIG1        0.1999
@<TRIPOS>BOND
     1     1     2    1
     2     1     6    1
     3     1    16    1
     4     2     3    1
     5     2    24    1
     6     2    25    1
     7     3     4    1
     8     3    26    1
     9     3    27    1
    10     4     5    1
    11     4    22    1
    12     4    23    1
    13     5     6    1
    14     5    28    1
    15     5    29    1
    16     6    30    1
    17     6    31    1
    18     7     8   ar
    19     7    12   ar
    20     7    13    1
    21     8     9   ar
    22     8    20    1
    23     9    10   ar
    24     9    19    1
    25    10    11   ar
    26    10    32    1
    27    11    12   ar
    28    11    42    1
    29    12    33    1
    30    13    14   ar
    31    13    18   ar
    32    14    15   ar
    33    15    16   ar
    34    15    34    1
    35    16    17   ar
    36    17    18   ar
    37    18    21    1
    38    21    35    1
    39    21    36    1
    40    22    37    1
    41    22    41    1
    42    22    43    1
    43    23    38    1
    44    23    39    1
    45    23    40    1
