Example 22
 OpenBabel02152110423D
Structure written by MMmdl.
 43 45  0  0  1  0  0  0  0  0999 V2000
   24.5395   41.6049    3.1578 N   0  0  0  0  0  0  0  0  0  0  0  0
   24.8999   42.8662    2.5072 C   0  0  0  0  0  0  0  0  0  0  0  0
   26.2796   43.3664    2.9523 C   0  0  0  0  0  0  0  0  0  0  0  0
   27.3815   42.3279    2.6866 C   0  0  0  0  0  0  0  0  0  0  0  0
   26.9458   40.9995    3.3439 C   0  0  0  0  0  0  0  0  0  0  0  0
   25.5393   40.5572    2.8667 C   0  0  0  0  0  0  0  0  0  0  0  0
   19.6658   40.5877    5.7494 C   0  0  0  0  0  0  0  0  0  0  0  0
   19.5101   40.8644    7.1230 C   0  0  0  0  0  0  0  0  0  0  0  0
   18.3019   40.5656    7.7663 C   0  0  0  0  0  0  0  0  0  0  0  0
   17.2448   40.0200    7.0430 C   0  0  0  0  0  0  0  0  0  0  0  0
   17.3911   39.7426    5.6865 C   0  0  0  0  0  0  0  0  0  0  0  0
   18.5948   40.0214    5.0464 C   0  0  0  0  0  0  0  0  0  0  0  0
   20.9506   40.8311    5.0393 C   0  0  0  0  0  0  0  0  0  0  0  0
   20.9222   41.7408    4.0321 N   0  0  0  0  0  0  0  0  0  0  0  0
   22.0724   42.0023    3.3571 C   0  0  0  0  0  0  0  0  0  0  0  0
   23.2821   41.3525    3.6978 C   0  0  0  0  0  0  0  0  0  0  0  0
   23.2822   40.4119    4.6800 N   0  0  0  0  0  0  0  0  0  0  0  0
   22.1374   40.1598    5.3456 C   0  0  0  0  0  0  0  0  0  0  0  0
   18.0811   40.8514    9.4592 Cl  0  0  0  0  0  0  0  0  0  0  0  0
   20.7877   41.6202    8.0217 Cl  0  0  0  0  0  0  0  0  0  0  0  0
   22.2064   39.2134    6.3526 N   0  0  0  0  0  0  0  0  0  0  0  0
   28.6518   42.8205    3.3925 N   0  3  0  0  0  0  0  0  0  0  0  0
   27.7192   42.1830    1.1873 C   0  0  0  0  0  0  0  0  0  0  0  0
   24.8060   42.7849    1.4224 H   0  0  0  0  0  0  0  0  0  0  0  0
   24.2071   43.6203    2.8514 H   0  0  0  0  0  0  0  0  0  0  0  0
   26.2187   43.6200    4.0124 H   0  0  0  0  0  0  0  0  0  0  0  0
   26.4809   44.3100    2.4460 H   0  0  0  0  0  0  0  0  0  0  0  0
   26.9083   41.0885    4.4322 H   0  0  0  0  0  0  0  0  0  0  0  0
   27.6786   40.2175    3.1547 H   0  0  0  0  0  0  0  0  0  0  0  0
   25.5294   40.3513    1.7952 H   0  0  0  0  0  0  0  0  0  0  0  0
   25.2850   39.6205    3.3614 H   0  0  0  0  0  0  0  0  0  0  0  0
   16.3102   39.7963    7.5376 H   0  0  0  0  0  0  0  0  0  0  0  0
   18.6982   39.7803    3.9951 H   0  0  0  0  0  0  0  0  0  0  0  0
   21.8404   43.2207    1.9002 Br  0  0  0  0  0  0  0  0  0  0  0  0
   23.0751   38.7102    6.5111 H   0  0  0  0  0  0  0  0  0  0  0  0
   21.3652   38.9553    6.8422 H   0  0  0  0  0  0  0  0  0  0  0  0
   29.4272   42.2022    3.1879 H   0  0  0  0  0  0  0  0  0  0  0  0
   26.8613   41.8500    0.6054 H   0  0  0  0  0  0  0  0  0  0  0  0
   28.5187   41.4571    1.0264 H   0  0  0  0  0  0  0  0  0  0  0  0
   28.0402   43.1320    0.7525 H   0  0  0  0  0  0  0  0  0  0  0  0
   28.8750   43.7542    3.0739 H   0  0  0  0  0  0  0  0  0  0  0  0
   16.5761   39.2981    5.1323 H   0  0  0  0  0  0  0  0  0  0  0  0
   28.5166   42.8522    4.3941 H   0  0  0  0  0  0  0  0  0  0  0  0
  1  2  1  0  0  0  0
  1  6  1  0  0  0  0
  1 16  1  0  0  0  0
  2  3  1  0  0  0  0
  2 24  1  0  0  0  0
  2 25  1  0  0  0  0
  3  4  1  0  0  0  0
  3 26  1  0  0  0  0
  3 27  1  0  0  0  0
  4  5  1  0  0  0  0
  4 22  1  0  0  0  0
  4 23  1  0  0  0  0
  5  6  1  0  0  0  0
  5 28  1  0  0  0  0
  5 29  1  0  0  0  0
  6 30  1  0  0  0  0
  6 31  1  0  0  0  0
  7  8  2  0  0  0  0
  7 12  1  0  0  0  0
  7 13  1  0  0  0  0
  8  9  1  0  0  0  0
  8 20  1  0  0  0  0
  9 10  2  0  0  0  0
  9 19  1  0  0  0  0
 10 11  1  0  0  0  0
 10 32  1  0  0  0  0
 11 12  2  0  0  0  0
 11 42  1  0  0  0  0
 12 33  1  0  0  0  0
 13 14  2  0  0  0  0
 13 18  1  0  0  0  0
 14 15  1  0  0  0  0
 15 16  2  0  0  0  0
 15 34  1  0  0  0  0
 16 17  1  0  0  0  0
 17 18  2  0  0  0  0
 18 21  1  0  0  0  0
 21 35  1  0  0  0  0
 21 36  1  0  0  0  0
 22 37  1  0  0  0  0
 22 41  1  0  0  0  0
 22 43  1  0  0  0  0
 23 38  1  0  0  0  0
 23 39  1  0  0  0  0
 23 40  1  0  0  0  0
M  CHG  1  22   1
M  END
>  <ID>
Example 22

>  <IC50 uM>
0.169

$$$$
