@<TRIPOS>MOLECULE
Example 3
 40 42 0 0 0
SMALL
GASTEIGER
****
Structure written by MMmdl.
@<TRIPOS>ATOM
      1 N          24.5401   41.3989    2.9532 N.pl3   1  LIG1       -0.2992
      2 C          24.8051   42.5811    2.1091 C.3     1  LIG1        0.0202
      3 C          25.8867   43.4859    2.7414 C.3     1  LIG1        0.0087
      4 C          27.1959   42.7112    3.0057 C.3     1  LIG1       -0.0135
      5 C          26.8794   41.4168    3.7759 C.3     1  LIG1        0.0087
      6 C          25.7664   40.5923    3.1008 C.3     1  LIG1        0.0202
      7 C          21.0145   40.7222    4.9516 C.ar    1  LIG1        0.0465
      8 C          21.1622   41.7734    4.0578 C.ar    1  LIG1        0.0427
      9 N          22.3208   42.0228    3.4091 N.ar    1  LIG1       -0.2220
     10 C          23.3684   41.1984    3.6775 C.ar    1  LIG1        0.2195
     11 N          23.3236   40.1664    4.5710 N.ar    1  LIG1       -0.1992
     12 C          22.1459   39.9363    5.1958 C.ar    1  LIG1        0.1295
     13 N          22.1027   38.8666    6.0810 N.pl3   1  LIG1       -0.3425
     14 N          28.0896   43.5958    3.9002 N.4     1  LIG1        0.2228
     15 C          27.9640   42.4179    1.7000 C.3     1  LIG1       -0.0187
     16 H          25.0995   42.2499    1.1137 H       1  LIG1        0.0467
     17 H          23.9127   43.1864    1.9546 H       1  LIG1        0.0467
     18 H          25.4693   43.9239    3.6497 H       1  LIG1        0.0338
     19 H          26.0748   44.3406    2.0903 H       1  LIG1        0.0338
     20 H          26.5404   41.6483    4.7775 H       1  LIG1        0.0338
     21 H          27.7726   40.8054    3.9001 H       1  LIG1        0.0338
     22 H          26.0868   40.2603    2.1152 H       1  LIG1        0.0467
     23 H          25.5901   39.6802    3.6671 H       1  LIG1        0.0467
     24 H          28.9764   43.1472    4.0723 H       1  LIG1        0.1999
     25 H          27.3702   41.8206    1.0036 H       1  LIG1        0.0287
     26 H          28.8797   41.8544    1.8898 H       1  LIG1        0.0287
     27 H          28.2303   43.3358    1.1767 H       1  LIG1        0.0287
     28 H          28.2507   44.4725    3.4086 H       1  LIG1        0.1999
     29 H          22.9628   38.3587    6.2652 H       1  LIG1        0.1437
     30 H          20.3462   42.4465    3.8573 H       1  LIG1        0.0838
     31 H          21.2513   38.6714    6.5822 H       1  LIG1        0.1437
     32 C          19.6898   40.4893    5.5418 C.ar    1  LIG1        0.0255
     33 C          18.5442   40.0172    4.9256 C.ar    1  LIG1       -0.0454
     34 C          17.4539   39.9740    5.7859 C.ar    1  LIG1       -0.0356
     35 C          17.7753   40.4507    7.0396 C.ar    1  LIG1        0.0786
     36 S          19.4367   40.8750    7.2092 S.2     1  LIG1       -0.0766
     37 H          18.5049   39.6859    3.8981 H       1  LIG1        0.0629
     38 H          16.4770   39.6243    5.4935 H       1  LIG1        0.0638
     39 CL         16.7315   40.6794    8.3518 Cl      1  LIG1       -0.0758
     40 H          27.6528   43.8098    4.7840 H       1  LIG1        0.1999
@<TRIPOS>BOND
     1     1     2    1
     2     1     6    1
     3     1    10    1
     4     2     3    1
     5     2    16    1
     6     2    17    1
     7     3     4    1
     8     3    18    1
     9     3    19    1
    10     4     5    1
    11     4    14    1
    12     4    15    1
    13     5     6    1
    14     5    20    1
    15     5    21    1
    16     6    22    1
    17     6    23    1
    18     7     8   ar
    19     7    12   ar
    20     7    32    1
    21     8     9   ar
    22     8    30    1
    23     9    10   ar
    24    10    11   ar
    25    11    12   ar
    26    12    13    1
    27    13    29    1
    28    13    31    1
    29    14    24    1
    30    14    28    1
    31    14    40    1
    32    15    25    1
    33    15    26    1
    34    15    27    1
    35    32    33   ar
    36    32    36   ar
    37    33    34   ar
    38    33    37    1
    39    34    35   ar
    40    34    38    1
    41    35    36   ar
    42    35    39    1
