Example 27
 OpenBabel02152110423D
Structure written by MMmdl.
 43 45  0  0  1  0  0  0  0  0999 V2000
   24.6991   41.2880    3.1084 N   0  0  0  0  0  0  0  0  0  0  0  0
   24.7544   42.3659    2.0828 C   0  0  0  0  0  0  0  0  0  0  0  0
   26.0819   43.1849    2.0777 C   0  0  1  0  0  0  0  0  0  0  0  0
   27.2540   42.3327    2.4127 N   0  3  0  0  0  0  0  0  0  0  0  0
   27.1216   41.4947    3.6356 C   0  0  1  0  0  0  0  0  0  0  0  0
   25.9265   40.5256    3.4438 C   0  0  0  0  0  0  0  0  0  0  0  0
   19.7062   40.2071    5.4923 C   0  0  0  0  0  0  0  0  0  0  0  0
   19.4758   40.5221    6.8291 C   0  0  0  0  0  0  0  0  0  0  0  0
   18.1971   40.3798    7.3797 C   0  0  0  0  0  0  0  0  0  0  0  0
   17.1161   39.9866    6.5815 C   0  0  0  0  0  0  0  0  0  0  0  0
   17.3356   39.6937    5.2208 C   0  0  0  0  0  0  0  0  0  0  0  0
   18.6213   39.8380    4.6722 C   0  0  0  0  0  0  0  0  0  0  0  0
   21.0642   40.4372    4.9252 C   0  0  0  0  0  0  0  0  0  0  0  0
   21.1830   41.4378    3.9557 N   0  0  0  0  0  0  0  0  0  0  0  0
   22.3711   41.6614    3.3749 C   0  0  0  0  0  0  0  0  0  0  0  0
   23.5007   40.9783    3.7010 C   0  0  0  0  0  0  0  0  0  0  0  0
   23.3990   40.0008    4.6377 N   0  0  0  0  0  0  0  0  0  0  0  0
   22.2307   39.6970    5.2474 C   0  0  0  0  0  0  0  0  0  0  0  0
   17.9052   40.7222    9.0484 Cl  0  0  0  0  0  0  0  0  0  0  0  0
   20.7750   41.0744    7.8377 Cl  0  0  0  0  0  0  0  0  0  0  0  0
   22.2224   38.6180    6.2309 N   0  0  0  0  0  0  0  0  0  0  0  0
   26.2822   43.8711    0.7590 C   0  0  0  0  0  0  0  0  0  0  0  0
   28.3855   40.7216    3.8701 C   0  0  0  0  0  0  0  0  0  0  0  0
   23.9975   43.1381    2.1866 H   0  0  0  0  0  0  0  0  0  0  0  0
   24.5965   41.9041    1.1061 H   0  0  0  0  0  0  0  0  0  0  0  0
   26.0162   43.9712    2.8322 H   0  0  0  0  0  0  0  0  0  0  0  0
   28.0700   42.9204    2.5053 H   0  0  0  0  0  0  0  0  0  0  0  0
   26.9639   42.1287    4.5102 H   0  0  0  0  0  0  0  0  0  0  0  0
   25.8110   39.9363    4.3552 H   0  0  0  0  0  0  0  0  0  0  0  0
   26.1261   39.8086    2.6459 H   0  0  0  0  0  0  0  0  0  0  0  0
   16.1286   39.8947    7.0105 H   0  0  0  0  0  0  0  0  0  0  0  0
   16.5088   39.3908    4.5936 H   0  0  0  0  0  0  0  0  0  0  0  0
   18.7827   39.6501    3.6201 H   0  0  0  0  0  0  0  0  0  0  0  0
   21.3638   38.3701    6.7014 H   0  0  0  0  0  0  0  0  0  0  0  0
   23.0753   38.1193    6.4406 H   0  0  0  0  0  0  0  0  0  0  0  0
   25.4124   44.4886    0.5350 H   0  0  0  0  0  0  0  0  0  0  0  0
   26.4084   43.1235   -0.0241 H   0  0  0  0  0  0  0  0  0  0  0  0
   27.1712   44.4998    0.8079 H   0  0  0  0  0  0  0  0  0  0  0  0
   28.2774   40.1120    4.7672 H   0  0  0  0  0  0  0  0  0  0  0  0
   29.2166   41.4148    3.9999 H   0  0  0  0  0  0  0  0  0  0  0  0
   28.5810   40.0763    3.0137 H   0  0  0  0  0  0  0  0  0  0  0  0
   27.3953   41.6996    1.6390 H   0  0  0  0  0  0  0  0  0  0  0  0
   22.2830   42.4182    2.6166 H   0  0  0  0  0  0  0  0  0  0  0  0
  1  2  1  0  0  0  0
  1  6  1  0  0  0  0
  1 16  1  0  0  0  0
  2  3  1  0  0  0  0
  2 24  1  0  0  0  0
  2 25  1  0  0  0  0
  3  4  1  0  0  0  0
  3 22  1  0  0  0  0
  3 26  1  1  0  0  0
  4  5  1  0  0  0  0
  4 27  1  0  0  0  0
  4 42  1  0  0  0  0
  5  6  1  0  0  0  0
  5 23  1  0  0  0  0
  5 28  1  1  0  0  0
  6 29  1  0  0  0  0
  6 30  1  0  0  0  0
  7  8  2  0  0  0  0
  7 12  1  0  0  0  0
  7 13  1  0  0  0  0
  8  9  1  0  0  0  0
  8 20  1  0  0  0  0
  9 10  2  0  0  0  0
  9 19  1  0  0  0  0
 10 11  1  0  0  0  0
 10 31  1  0  0  0  0
 11 12  2  0  0  0  0
 11 32  1  0  0  0  0
 12 33  1  0  0  0  0
 13 14  2  0  0  0  0
 13 18  1  0  0  0  0
 14 15  1  0  0  0  0
 15 16  2  0  0  0  0
 15 43  1  0  0  0  0
 16 17  1  0  0  0  0
 17 18  2  0  0  0  0
 18 21  1  0  0  0  0
 21 34  1  0  0  0  0
 21 35  1  0  0  0  0
 22 36  1  0  0  0  0
 22 37  1  0  0  0  0
 22 38  1  0  0  0  0
 23 39  1  0  0  0  0
 23 40  1  0  0  0  0
 23 41  1  0  0  0  0
M  CHG  1   4   1
M  END
>  <ID>
Example 27

>  <IC50 uM>
0.57

$$$$
