Example 23
 OpenBabel02152110423D
Structure written by MMmdl.
 43 45  0  0  1  0  0  0  0  0999 V2000
   24.5404   41.5885    3.3090 N   0  0  0  0  0  0  0  0  0  0  0  0
   24.8982   42.8207    2.6006 C   0  0  0  0  0  0  0  0  0  0  0  0
   26.2819   43.3367    3.0100 C   0  0  0  0  0  0  0  0  0  0  0  0
   27.3971   42.2987    2.8091 C   0  0  0  0  0  0  0  0  0  0  0  0
   26.9514   40.9750    3.4735 C   0  0  0  0  0  0  0  0  0  0  0  0
   25.5365   40.5417    3.0039 C   0  0  0  0  0  0  0  0  0  0  0  0
   19.5908   40.5482    5.7796 C   0  0  0  0  0  0  0  0  0  0  0  0
   19.3934   40.8482    7.1425 C   0  0  0  0  0  0  0  0  0  0  0  0
   18.1521   40.5813    7.7423 C   0  0  0  0  0  0  0  0  0  0  0  0
   17.1217   40.0191    6.9875 C   0  0  0  0  0  0  0  0  0  0  0  0
   17.3078   39.7413    5.6358 C   0  0  0  0  0  0  0  0  0  0  0  0
   18.5344   40.0192    5.0382 C   0  0  0  0  0  0  0  0  0  0  0  0
   20.9028   40.7687    5.1073 C   0  0  0  0  0  0  0  0  0  0  0  0
   20.9078   41.7188    4.1417 N   0  0  0  0  0  0  0  0  0  0  0  0
   22.0632   41.9854    3.4794 C   0  0  0  0  0  0  0  0  0  0  0  0
   23.2624   41.3076    3.8120 C   0  0  0  0  0  0  0  0  0  0  0  0
   23.2282   40.3206    4.7525 N   0  0  0  0  0  0  0  0  0  0  0  0
   22.0678   40.0524    5.3940 C   0  0  0  0  0  0  0  0  0  0  0  0
   17.8605   40.9445    9.4073 Cl  0  0  0  0  0  0  0  0  0  0  0  0
   20.6492   41.6069    8.0667 Cl  0  0  0  0  0  0  0  0  0  0  0  0
   22.0799   39.0352    6.3399 N   0  0  0  0  0  0  0  0  0  0  0  0
   28.6403   42.8202    3.5448 N   0  3  0  0  0  0  0  0  0  0  0  0
   27.7928   42.1290    1.3299 C   0  0  0  0  0  0  0  0  0  0  0  0
   24.8178   42.6857    1.5203 H   0  0  0  0  0  0  0  0  0  0  0  0
   24.2286   43.6152    2.9029 H   0  0  0  0  0  0  0  0  0  0  0  0
   26.2161   43.6207    4.0603 H   0  0  0  0  0  0  0  0  0  0  0  0
   26.4810   44.2580    2.4609 H   0  0  0  0  0  0  0  0  0  0  0  0
   26.9134   41.0715    4.5641 H   0  0  0  0  0  0  0  0  0  0  0  0
   27.6822   40.1891    3.2852 H   0  0  0  0  0  0  0  0  0  0  0  0
   25.5245   40.3383    1.9332 H   0  0  0  0  0  0  0  0  0  0  0  0
   25.2946   39.5971    3.4899 H   0  0  0  0  0  0  0  0  0  0  0  0
   16.1718   39.8031    7.4535 H   0  0  0  0  0  0  0  0  0  0  0  0
   18.6691   39.7720    3.9920 H   0  0  0  0  0  0  0  0  0  0  0  0
   21.9002   43.1348    2.1934 Cl  0  0  0  0  0  0  0  0  0  0  0  0
   21.2246   38.7897    6.8170 H   0  0  0  0  0  0  0  0  0  0  0  0
   22.9415   38.5372    6.5292 H   0  0  0  0  0  0  0  0  0  0  0  0
   29.4267   42.2097    3.3639 H   0  0  0  0  0  0  0  0  0  0  0  0
   26.9724   41.7611    0.7163 H   0  0  0  0  0  0  0  0  0  0  0  0
   28.6122   41.4170    1.2248 H   0  0  0  0  0  0  0  0  0  0  0  0
   28.1175   43.0722    0.8894 H   0  0  0  0  0  0  0  0  0  0  0  0
   28.8625   43.7498    3.2184 H   0  0  0  0  0  0  0  0  0  0  0  0
   16.5085   39.3000    5.0566 H   0  0  0  0  0  0  0  0  0  0  0  0
   28.4824   42.8752    4.5419 H   0  0  0  0  0  0  0  0  0  0  0  0
  1  2  1  0  0  0  0
  1  6  1  0  0  0  0
  1 16  1  0  0  0  0
  2  3  1  0  0  0  0
  2 24  1  0  0  0  0
  2 25  1  0  0  0  0
  3  4  1  0  0  0  0
  3 26  1  0  0  0  0
  3 27  1  0  0  0  0
  4  5  1  0  0  0  0
  4 22  1  0  0  0  0
  4 23  1  0  0  0  0
  5  6  1  0  0  0  0
  5 28  1  0  0  0  0
  5 29  1  0  0  0  0
  6 30  1  0  0  0  0
  6 31  1  0  0  0  0
  7  8  2  0  0  0  0
  7 12  1  0  0  0  0
  7 13  1  0  0  0  0
  8  9  1  0  0  0  0
  8 20  1  0  0  0  0
  9 10  2  0  0  0  0
  9 19  1  0  0  0  0
 10 11  1  0  0  0  0
 10 32  1  0  0  0  0
 11 12  2  0  0  0  0
 11 42  1  0  0  0  0
 12 33  1  0  0  0  0
 13 14  2  0  0  0  0
 13 18  1  0  0  0  0
 14 15  1  0  0  0  0
 15 16  2  0  0  0  0
 15 34  1  0  0  0  0
 16 17  1  0  0  0  0
 17 18  2  0  0  0  0
 18 21  1  0  0  0  0
 21 35  1  0  0  0  0
 21 36  1  0  0  0  0
 22 37  1  0  0  0  0
 22 41  1  0  0  0  0
 22 43  1  0  0  0  0
 23 38  1  0  0  0  0
 23 39  1  0  0  0  0
 23 40  1  0  0  0  0
M  CHG  1  22   1
M  END
>  <ID>
Example 23

>  <IC50 uM>
0.392

$$$$
