Example 30
 OpenBabel02152110423D
Structure written by MMmdl.
 42 44  0  0  1  0  0  0  0  0999 V2000
   24.5353   41.3991    2.9617 N   0  0  0  0  0  0  0  0  0  0  0  0
   24.7904   42.5868    2.1178 C   0  0  0  0  0  0  0  0  0  0  0  0
   25.8810   43.4864    2.7374 C   0  0  0  0  0  0  0  0  0  0  0  0
   27.1904   42.7177    3.0202 C   0  0  0  0  0  0  0  0  0  0  0  0
   26.8799   41.4106    3.7771 C   0  0  0  0  0  0  0  0  0  0  0  0
   25.7613   40.5911    3.1100 C   0  0  0  0  0  0  0  0  0  0  0  0
   19.6930   40.5254    5.5288 C   0  0  0  0  0  0  0  0  0  0  0  0
   19.4034   40.8157    6.8758 C   0  0  0  0  0  0  0  0  0  0  0  0
   18.1082   40.6044    7.3696 C   0  0  0  0  0  0  0  0  0  0  0  0
   17.1167   40.0887    6.5328 C   0  0  0  0  0  0  0  0  0  0  0  0
   17.4098   39.7819    5.2071 C   0  0  0  0  0  0  0  0  0  0  0  0
   18.6895   40.0203    4.7125 C   0  0  0  0  0  0  0  0  0  0  0  0
   21.0365   40.7490    4.9467 C   0  0  0  0  0  0  0  0  0  0  0  0
   21.1333   41.7708    4.0585 N   0  0  0  0  0  0  0  0  0  0  0  0
   22.2940   41.9986    3.4273 N   0  0  0  0  0  0  0  0  0  0  0  0
   23.3597   41.1910    3.6865 C   0  0  0  0  0  0  0  0  0  0  0  0
   23.3270   40.1643    4.5796 N   0  0  0  0  0  0  0  0  0  0  0  0
   22.1528   39.9456    5.2064 C   0  0  0  0  0  0  0  0  0  0  0  0
   17.6833   41.0096    8.9986 Cl  0  0  0  0  0  0  0  0  0  0  0  0
   20.6245   41.4803    7.9166 Cl  0  0  0  0  0  0  0  0  0  0  0  0
   22.1086   38.8756    6.0941 N   0  0  0  0  0  0  0  0  0  0  0  0
   28.0640   43.6032    3.9216 N   0  3  0  0  0  0  0  0  0  0  0  0
   27.9783   42.4349    1.7217 C   0  0  0  0  0  0  0  0  0  0  0  0
   25.0622   42.2702    1.1121 H   0  0  0  0  0  0  0  0  0  0  0  0
   23.8919   43.1904    1.9925 H   0  0  0  0  0  0  0  0  0  0  0  0
   25.4681   43.9379    3.6411 H   0  0  0  0  0  0  0  0  0  0  0  0
   26.0761   44.3323    2.0760 H   0  0  0  0  0  0  0  0  0  0  0  0
   26.5552   41.6277    4.7883 H   0  0  0  0  0  0  0  0  0  0  0  0
   27.7778   40.8018    3.8837 H   0  0  0  0  0  0  0  0  0  0  0  0
   26.0791   40.2303    2.1341 H   0  0  0  0  0  0  0  0  0  0  0  0
   25.5850   39.6899    3.6945 H   0  0  0  0  0  0  0  0  0  0  0  0
   16.1095   39.9553    6.9017 H   0  0  0  0  0  0  0  0  0  0  0  0
   16.6477   39.3919    4.5519 H   0  0  0  0  0  0  0  0  0  0  0  0
   18.8949   39.7782    3.6715 H   0  0  0  0  0  0  0  0  0  0  0  0
   22.9746   38.3788    6.2904 H   0  0  0  0  0  0  0  0  0  0  0  0
   21.2689   38.6932    6.6209 H   0  0  0  0  0  0  0  0  0  0  0  0
   28.9333   43.1400    4.1444 H   0  0  0  0  0  0  0  0  0  0  0  0
   27.4275   41.7736    1.0493 H   0  0  0  0  0  0  0  0  0  0  0  0
   28.9366   41.9502    1.9281 H   0  0  0  0  0  0  0  0  0  0  0  0
   28.1799   43.3541    1.1679 H   0  0  0  0  0  0  0  0  0  0  0  0
   28.2675   44.4651    3.4205 H   0  0  0  0  0  0  0  0  0  0  0  0
   27.5917   43.8449    4.7797 H   0  0  0  0  0  0  0  0  0  0  0  0
  1  2  1  0  0  0  0
  1  6  1  0  0  0  0
  1 16  1  0  0  0  0
  2  3  1  0  0  0  0
  2 24  1  0  0  0  0
  2 25  1  0  0  0  0
  3  4  1  0  0  0  0
  3 26  1  0  0  0  0
  3 27  1  0  0  0  0
  4  5  1  0  0  0  0
  4 22  1  0  0  0  0
  4 23  1  0  0  0  0
  5  6  1  0  0  0  0
  5 28  1  0  0  0  0
  5 29  1  0  0  0  0
  6 30  1  0  0  0  0
  6 31  1  0  0  0  0
  7  8  2  0  0  0  0
  7 12  1  0  0  0  0
  7 13  1  0  0  0  0
  8  9  1  0  0  0  0
  8 20  1  0  0  0  0
  9 10  2  0  0  0  0
  9 19  1  0  0  0  0
 10 11  1  0  0  0  0
 10 32  1  0  0  0  0
 11 12  2  0  0  0  0
 11 33  1  0  0  0  0
 12 34  1  0  0  0  0
 13 14  2  0  0  0  0
 13 18  1  0  0  0  0
 14 15  1  0  0  0  0
 15 16  2  0  0  0  0
 16 17  1  0  0  0  0
 17 18  2  0  0  0  0
 18 21  1  0  0  0  0
 21 35  1  0  0  0  0
 21 36  1  0  0  0  0
 22 37  1  0  0  0  0
 22 41  1  0  0  0  0
 22 42  1  0  0  0  0
 23 38  1  0  0  0  0
 23 39  1  0  0  0  0
 23 40  1  0  0  0  0
M  CHG  1  22   1
M  END
>  <ID>
Example 30

>  <IC50 uM>
0.194

$$$$
