@<TRIPOS>MOLECULE
Example 5
 47 49 0 0 0
SMALL
GASTEIGER
****
Structure written by MMmdl.
@<TRIPOS>ATOM
      1 N          24.7241   41.2613    2.6346 N.pl3   1  LIG1       -0.2992
      2 C          25.8333   40.2945    2.6700 C.3     1  LIG1        0.0202
      3 C          26.9699   40.8429    3.5529 C.3     1  LIG1        0.0087
      4 C          27.4505   42.2668    3.1409 C.3     1  LIG1       -0.0135
      5 C          26.3237   43.1539    2.5080 C.3     1  LIG1        0.0087
      6 C          25.1614   42.4028    1.8201 C.3     1  LIG1        0.0202
      7 C          20.0829   40.6840    5.7737 C.ar    1  LIG1        0.0100
      8 C          20.0391   40.8338    7.1767 C.ar    1  LIG1        0.0673
      9 C          18.8298   40.7034    7.8687 C.ar    1  LIG1        0.0633
     10 C          17.6817   40.3910    7.1941 C.ar    1  LIG1       -0.0002
     11 C          17.6939   40.2193    5.8132 C.ar    1  LIG1        0.1221
     12 C          18.8855   40.3853    5.1133 C.ar    1  LIG1       -0.0106
     13 C          21.3243   40.8337    4.9480 C.ar    1  LIG1        0.0414
     14 C          21.3462   41.8381    4.0268 C.ar    1  LIG1        0.0422
     15 N          22.4822   42.0243    3.3029 N.ar    1  LIG1       -0.2220
     16 C          23.6278   41.2327    3.4968 C.ar    1  LIG1        0.2195
     17 N          23.5916   40.2239    4.4038 N.ar    1  LIG1       -0.1992
     18 C          22.4598   40.0202    5.1184 C.ar    1  LIG1        0.1291
     19 CL         18.6695   40.7956    9.5758 Cl      1  LIG1       -0.0819
     20 CL         21.4608   41.0419    8.1147 Cl      1  LIG1       -0.0814
     21 N          22.4732   38.9282    5.9702 N.pl3   1  LIG1       -0.3425
     22 C          28.4859   42.0190    2.0282 C.3     1  LIG1       -0.0187
     23 N          28.1467   42.9714    4.2285 N.4     1  LIG1        0.2228
     24 H          25.5078   39.3196    3.0310 H       1  LIG1        0.0467
     25 H          26.1989   40.1160    1.6558 H       1  LIG1        0.0467
     26 H          27.7954   40.1259    3.5498 H       1  LIG1        0.0338
     27 H          26.6252   40.8384    4.5927 H       1  LIG1        0.0338
     28 H          26.7345   43.8649    1.7863 H       1  LIG1        0.0338
     29 H          25.8911   43.7981    3.2771 H       1  LIG1        0.0338
     30 H          24.3292   43.0802    1.6218 H       1  LIG1        0.0467
     31 H          25.4809   42.0664    0.8308 H       1  LIG1        0.0467
     32 H          16.7922   40.2785    7.7937 H       1  LIG1        0.0669
     33 O          16.5632   39.9184    5.1087 O.3     1  LIG1       -0.4950
     34 H          18.8724   40.2684    4.0412 H       1  LIG1        0.0661
     35 H          23.3386   38.4221    6.1486 H       1  LIG1        0.1437
     36 H          21.6432   38.7023    6.4991 H       1  LIG1        0.1437
     37 C          15.3468   39.8935    5.8343 C.3     1  LIG1        0.0788
     38 H          14.5261   39.9323    5.1461 H       1  LIG1        0.0660
     39 H          15.2219   40.7801    6.4384 H       1  LIG1        0.0660
     40 H          15.2618   39.0000    6.4563 H       1  LIG1        0.0660
     41 H          28.9929   42.8697    1.5493 H       1  LIG1        0.0287
     42 H          28.0337   41.3963    1.2563 H       1  LIG1        0.0287
     43 H          29.2374   41.3190    2.3934 H       1  LIG1        0.0287
     44 H          28.4351   43.8848    3.9081 H       1  LIG1        0.1999
     45 H          27.5241   43.0729    5.0173 H       1  LIG1        0.1999
     46 H          28.9594   42.4405    4.5074 H       1  LIG1        0.1999
     47 H          20.4755   42.4616    3.8869 H       1  LIG1        0.0838
@<TRIPOS>BOND
     1     1     2    1
     2     1     6    1
     3     1    16    1
     4     2     3    1
     5     2    24    1
     6     2    25    1
     7     3     4    1
     8     3    26    1
     9     3    27    1
    10     4     5    1
    11     4    22    1
    12     4    23    1
    13     5     6    1
    14     5    28    1
    15     5    29    1
    16     6    30    1
    17     6    31    1
    18     7     8   ar
    19     7    12   ar
    20     7    13    1
    21     8     9   ar
    22     8    20    1
    23     9    10   ar
    24     9    19    1
    25    10    11   ar
    26    10    32    1
    27    11    12   ar
    28    11    33    1
    29    12    34    1
    30    13    14   ar
    31    13    18   ar
    32    14    15   ar
    33    14    47    1
    34    15    16   ar
    35    16    17   ar
    36    17    18   ar
    37    18    21    1
    38    21    35    1
    39    21    36    1
    40    22    41    1
    41    22    42    1
    42    22    43    1
    43    23    44    1
    44    23    45    1
    45    23    46    1
    46    33    37    1
    47    37    38    1
    48    37    39    1
    49    37    40    1
