Example 29
 OpenBabel02152110423D
Structure written by MMmdl.
 47 49  0  0  1  0  0  0  0  0999 V2000
   24.4107   41.3723    2.7009 N   0  0  0  0  0  0  0  0  0  0  0  0
   24.7838   42.6182    2.0126 C   0  0  0  0  0  0  0  0  0  0  0  0
   25.7794   43.4100    2.8966 C   0  0  0  0  0  0  0  0  0  0  0  0
   27.0503   42.5825    3.2063 C   0  0  2  0  0  0  0  0  0  0  0  0
   26.6622   41.1652    3.7013 C   0  0  0  0  0  0  0  0  0  0  0  0
   25.6079   40.5090    2.7764 C   0  0  0  0  0  0  0  0  0  0  0  0
   19.8516   40.7173    5.9010 C   0  0  0  0  0  0  0  0  0  0  0  0
   18.7679   40.1939    5.2879 C   0  0  0  0  0  0  0  0  0  0  0  0
   17.4557   39.8383    5.9773 C   0  0  0  0  0  0  0  0  0  0  0  0
   17.5170   39.9824    7.5197 C   0  0  0  0  0  0  0  0  0  0  0  0
   18.5283   41.0246    8.0301 C   0  0  0  0  0  0  0  0  0  0  0  0
   19.9293   40.8002    7.4266 C   0  0  0  0  0  0  0  0  0  0  0  0
   21.0896   40.8699    5.1066 C   0  0  0  0  0  0  0  0  0  0  0  0
   21.1118   41.9493    4.2811 N   0  0  0  0  0  0  0  0  0  0  0  0
   22.2110   42.1308    3.5040 C   0  0  0  0  0  0  0  0  0  0  0  0
   23.3187   41.2685    3.5616 C   0  0  0  0  0  0  0  0  0  0  0  0
   23.2859   40.1996    4.4067 N   0  0  0  0  0  0  0  0  0  0  0  0
   22.1835   39.9940    5.1662 C   0  0  0  0  0  0  0  0  0  0  0  0
   22.1653   38.8572    5.9693 N   0  0  0  0  0  0  0  0  0  0  0  0
   27.7758   43.2939    4.3522 N   0  3  0  0  0  0  0  0  0  0  0  0
   28.0247   42.5438    2.0086 C   0  0  0  0  0  0  0  0  0  0  0  0
   25.2593   42.3635    1.0629 H   0  0  0  0  0  0  0  0  0  0  0  0
   23.9239   43.2239    1.7281 H   0  0  0  0  0  0  0  0  0  0  0  0
   25.2565   43.6727    3.8197 H   0  0  0  0  0  0  0  0  0  0  0  0
   26.0356   44.3662    2.4332 H   0  0  0  0  0  0  0  0  0  0  0  0
   26.2316   41.2047    4.7056 H   0  0  0  0  0  0  0  0  0  0  0  0
   27.5425   40.5253    3.7846 H   0  0  0  0  0  0  0  0  0  0  0  0
   26.0191   40.3826    1.7722 H   0  0  0  0  0  0  0  0  0  0  0  0
   25.3571   39.5018    3.1076 H   0  0  0  0  0  0  0  0  0  0  0  0
   18.8198   40.0275    4.2183 H   0  0  0  0  0  0  0  0  0  0  0  0
   17.1576   38.8236    5.7071 H   0  0  0  0  0  0  0  0  0  0  0  0
   16.6743   40.4781    5.5749 H   0  0  0  0  0  0  0  0  0  0  0  0
   16.5193   40.1998    7.9100 H   0  0  0  0  0  0  0  0  0  0  0  0
   17.7737   39.0117    7.9454 H   0  0  0  0  0  0  0  0  0  0  0  0
   18.5840   40.9789    9.1205 H   0  0  0  0  0  0  0  0  0  0  0  0
   18.1707   42.0204    7.7852 H   0  0  0  0  0  0  0  0  0  0  0  0
   20.6237   41.5803    7.7370 H   0  0  0  0  0  0  0  0  0  0  0  0
   20.3330   39.8688    7.8277 H   0  0  0  0  0  0  0  0  0  0  0  0
   22.1715   42.9725    2.8339 H   0  0  0  0  0  0  0  0  0  0  0  0
   21.3346   38.6403    6.4968 H   0  0  0  0  0  0  0  0  0  0  0  0
   23.0121   38.3087    6.0818 H   0  0  0  0  0  0  0  0  0  0  0  0
   28.6348   42.8196    4.5944 H   0  0  0  0  0  0  0  0  0  0  0  0
   28.0010   44.2418    4.0797 H   0  0  0  0  0  0  0  0  0  0  0  0
   27.5905   42.0350    1.1500 H   0  0  0  0  0  0  0  0  0  0  0  0
   28.9484   42.0199    2.2567 H   0  0  0  0  0  0  0  0  0  0  0  0
   28.2988   43.5491    1.6812 H   0  0  0  0  0  0  0  0  0  0  0  0
   27.1913   43.3357    5.1774 H   0  0  0  0  0  0  0  0  0  0  0  0
  1  2  1  0  0  0  0
  1  6  1  0  0  0  0
  1 16  1  0  0  0  0
  2  3  1  0  0  0  0
  2 22  1  0  0  0  0
  2 23  1  0  0  0  0
  3  4  1  0  0  0  0
  3 24  1  0  0  0  0
  3 25  1  0  0  0  0
  4  5  1  0  0  0  0
  4 20  1  1  0  0  0
  4 21  1  0  0  0  0
  5  6  1  0  0  0  0
  5 26  1  0  0  0  0
  5 27  1  0  0  0  0
  6 28  1  0  0  0  0
  6 29  1  0  0  0  0
  7  8  2  0  0  0  0
  7 12  1  0  0  0  0
  7 13  1  0  0  0  0
  8  9  1  0  0  0  0
  8 30  1  0  0  0  0
  9 10  1  0  0  0  0
  9 31  1  0  0  0  0
  9 32  1  0  0  0  0
 10 11  1  0  0  0  0
 10 33  1  0  0  0  0
 10 34  1  0  0  0  0
 11 12  1  0  0  0  0
 11 35  1  0  0  0  0
 11 36  1  0  0  0  0
 12 37  1  0  0  0  0
 12 38  1  0  0  0  0
 13 14  2  0  0  0  0
 13 18  1  0  0  0  0
 14 15  1  0  0  0  0
 15 16  2  0  0  0  0
 15 39  1  0  0  0  0
 16 17  1  0  0  0  0
 17 18  2  0  0  0  0
 18 19  1  0  0  0  0
 19 40  1  0  0  0  0
 19 41  1  0  0  0  0
 20 42  1  0  0  0  0
 20 43  1  0  0  0  0
 20 47  1  0  0  0  0
 21 44  1  0  0  0  0
 21 45  1  0  0  0  0
 21 46  1  0  0  0  0
M  CHG  1  20   1
M  END
>  <ID>
Example 29

>  <IC50 uM>
2.585

$$$$
