Example 2
 OpenBabel02152110423D
Structure written by MMmdl.
 46 48  0  0  1  0  0  0  0  0999 V2000
   24.5912   41.4412    2.9628 N   0  0  0  0  0  0  0  0  0  0  0  0
   25.7880   40.5839    3.0947 C   0  0  0  0  0  0  0  0  0  0  0  0
   26.8827   41.4187    3.7819 C   0  0  0  0  0  0  0  0  0  0  0  0
   27.2037   42.7296    3.0208 C   0  0  0  0  0  0  0  0  0  0  0  0
   25.8914   43.4984    2.7286 C   0  0  0  0  0  0  0  0  0  0  0  0
   24.8146   42.6072    2.0858 C   0  0  0  0  0  0  0  0  0  0  0  0
   19.6867   40.5350    5.5377 C   0  0  0  0  0  0  0  0  0  0  0  0
   19.4006   40.8261    6.8758 C   0  0  0  0  0  0  0  0  0  0  0  0
   18.1051   40.6078    7.3743 C   0  0  0  0  0  0  0  0  0  0  0  0
   17.1087   40.0858    6.5430 C   0  0  0  0  0  0  0  0  0  0  0  0
   17.4034   39.7629    5.2225 C   0  0  0  0  0  0  0  0  0  0  0  0
   18.6796   40.0169    4.7228 C   0  0  0  0  0  0  0  0  0  0  0  0
   21.0271   40.7724    4.9478 C   0  0  0  0  0  0  0  0  0  0  0  0
   21.1661   41.8108    4.0707 C   0  0  0  0  0  0  0  0  0  0  0  0
   22.3393   42.0621    3.4383 N   0  0  0  0  0  0  0  0  0  0  0  0
   23.4048   41.2182    3.6484 C   0  0  0  0  0  0  0  0  0  0  0  0
   23.3416   40.1990    4.5483 N   0  0  0  0  0  0  0  0  0  0  0  0
   22.1565   39.9549    5.1862 C   0  0  0  0  0  0  0  0  0  0  0  0
   17.7286   41.0151    8.7870 C   0  0  0  0  0  0  0  0  0  0  0  0
   20.6167   41.4952    7.9158 Cl  0  0  0  0  0  0  0  0  0  0  0  0
   22.0942   38.8874    6.0945 N   0  0  0  0  0  0  0  0  0  0  0  0
   28.0568   43.6104    3.9321 N   0  3  0  0  0  0  0  0  0  0  0  0
   27.9976   42.4511    1.7261 C   0  0  0  0  0  0  0  0  0  0  0  0
   26.0793   40.2606    2.0975 H   0  0  0  0  0  0  0  0  0  0  0  0
   25.5374   39.6817    3.6751 H   0  0  0  0  0  0  0  0  0  0  0  0
   26.5304   41.6654    4.7796 H   0  0  0  0  0  0  0  0  0  0  0  0
   27.7778   40.8079    3.8955 H   0  0  0  0  0  0  0  0  0  0  0  0
   25.4751   43.9072    3.6483 H   0  0  0  0  0  0  0  0  0  0  0  0
   26.0824   44.3546    2.0811 H   0  0  0  0  0  0  0  0  0  0  0  0
   25.1238   42.2418    1.1104 H   0  0  0  0  0  0  0  0  0  0  0  0
   23.8669   43.1548    1.9503 H   0  0  0  0  0  0  0  0  0  0  0  0
   16.0936   39.9544    6.9083 H   0  0  0  0  0  0  0  0  0  0  0  0
   16.6326   39.3650    4.5781 H   0  0  0  0  0  0  0  0  0  0  0  0
   18.8818   39.7600    3.6910 H   0  0  0  0  0  0  0  0  0  0  0  0
   28.9250   43.1640    4.1754 H   0  0  0  0  0  0  0  0  0  0  0  0
   28.9465   41.9493    1.9173 H   0  0  0  0  0  0  0  0  0  0  0  0
   28.2119   43.3578    1.1601 H   0  0  0  0  0  0  0  0  0  0  0  0
   27.4467   41.7986    1.0477 H   0  0  0  0  0  0  0  0  0  0  0  0
   28.2553   44.4865    3.4578 H   0  0  0  0  0  0  0  0  0  0  0  0
   22.9522   38.3892    6.3063 H   0  0  0  0  0  0  0  0  0  0  0  0
   20.3269   42.4788    3.8471 H   0  0  0  0  0  0  0  0  0  0  0  0
   21.2395   38.7067    6.6030 H   0  0  0  0  0  0  0  0  0  0  0  0
   16.6613   40.8809    8.9516 H   0  0  0  0  0  0  0  0  0  0  0  0
   17.9571   42.0730    8.9359 H   0  0  0  0  0  0  0  0  0  0  0  0
   18.2961   40.4417    9.5254 H   0  0  0  0  0  0  0  0  0  0  0  0
   27.5603   43.8225    4.7842 H   0  0  0  0  0  0  0  0  0  0  0  0
  1  2  1  0  0  0  0
  1  6  1  0  0  0  0
  1 16  1  0  0  0  0
  2  3  1  0  0  0  0
  2 24  1  0  0  0  0
  2 25  1  0  0  0  0
  3  4  1  0  0  0  0
  3 26  1  0  0  0  0
  3 27  1  0  0  0  0
  4  5  1  0  0  0  0
  4 22  1  0  0  0  0
  4 23  1  0  0  0  0
  5  6  1  0  0  0  0
  5 28  1  0  0  0  0
  5 29  1  0  0  0  0
  6 30  1  0  0  0  0
  6 31  1  0  0  0  0
  7  8  2  0  0  0  0
  7 12  1  0  0  0  0
  7 13  1  0  0  0  0
  8  9  1  0  0  0  0
  8 20  1  0  0  0  0
  9 10  2  0  0  0  0
  9 19  1  0  0  0  0
 10 11  1  0  0  0  0
 10 32  1  0  0  0  0
 11 12  2  0  0  0  0
 11 33  1  0  0  0  0
 12 34  1  0  0  0  0
 13 14  2  0  0  0  0
 13 18  1  0  0  0  0
 14 15  1  0  0  0  0
 14 41  1  0  0  0  0
 15 16  2  0  0  0  0
 16 17  1  0  0  0  0
 17 18  2  0  0  0  0
 18 21  1  0  0  0  0
 19 43  1  0  0  0  0
 19 44  1  0  0  0  0
 19 45  1  0  0  0  0
 21 40  1  0  0  0  0
 21 42  1  0  0  0  0
 22 35  1  0  0  0  0
 22 39  1  0  0  0  0
 22 46  1  0  0  0  0
 23 36  1  0  0  0  0
 23 37  1  0  0  0  0
 23 38  1  0  0  0  0
M  CHG  1  22   1
M  END
>  <ID>
Example 2

>  <IC50 uM>
0.858

$$$$
