@<TRIPOS>MOLECULE
Example 2
 46 48 0 0 0
SMALL
GASTEIGER
****
Structure written by MMmdl.
@<TRIPOS>ATOM
      1 N          24.5912   41.4412    2.9628 N.pl3   1  LIG1       -0.2992
      2 C          25.7880   40.5839    3.0947 C.3     1  LIG1        0.0202
      3 C          26.8827   41.4187    3.7819 C.3     1  LIG1        0.0087
      4 C          27.2037   42.7296    3.0208 C.3     1  LIG1       -0.0135
      5 C          25.8914   43.4984    2.7286 C.3     1  LIG1        0.0087
      6 C          24.8146   42.6072    2.0858 C.3     1  LIG1        0.0202
      7 C          19.6867   40.5350    5.5377 C.ar    1  LIG1        0.0054
      8 C          19.4006   40.8261    6.8758 C.ar    1  LIG1        0.0517
      9 C          18.1051   40.6078    7.3743 C.ar    1  LIG1       -0.0315
     10 C          17.1087   40.0858    6.5430 C.ar    1  LIG1       -0.0574
     11 C          17.4034   39.7629    5.2225 C.ar    1  LIG1       -0.0608
     12 C          18.6796   40.0169    4.7228 C.ar    1  LIG1       -0.0525
     13 C          21.0271   40.7724    4.9478 C.ar    1  LIG1        0.0413
     14 C          21.1661   41.8108    4.0707 C.ar    1  LIG1        0.0422
     15 N          22.3393   42.0621    3.4383 N.ar    1  LIG1       -0.2220
     16 C          23.4048   41.2182    3.6484 C.ar    1  LIG1        0.2195
     17 N          23.3416   40.1990    4.5483 N.ar    1  LIG1       -0.1992
     18 C          22.1565   39.9549    5.1862 C.ar    1  LIG1        0.1291
     19 C          17.7286   41.0151    8.7870 C.3     1  LIG1       -0.0383
     20 CL         20.6167   41.4952    7.9158 Cl      1  LIG1       -0.0826
     21 N          22.0942   38.8874    6.0945 N.pl3   1  LIG1       -0.3425
     22 N          28.0568   43.6104    3.9321 N.4     1  LIG1        0.2228
     23 C          27.9976   42.4511    1.7261 C.3     1  LIG1       -0.0187
     24 H          26.0793   40.2606    2.0975 H       1  LIG1        0.0467
     25 H          25.5374   39.6817    3.6751 H       1  LIG1        0.0467
     26 H          26.5304   41.6654    4.7796 H       1  LIG1        0.0338
     27 H          27.7778   40.8079    3.8955 H       1  LIG1        0.0338
     28 H          25.4751   43.9072    3.6483 H       1  LIG1        0.0338
     29 H          26.0824   44.3546    2.0811 H       1  LIG1        0.0338
     30 H          25.1238   42.2418    1.1104 H       1  LIG1        0.0467
     31 H          23.8669   43.1548    1.9503 H       1  LIG1        0.0467
     32 H          16.0936   39.9544    6.9083 H       1  LIG1        0.0621
     33 H          16.6326   39.3650    4.5781 H       1  LIG1        0.0618
     34 H          18.8818   39.7600    3.6910 H       1  LIG1        0.0624
     35 H          28.9250   43.1640    4.1754 H       1  LIG1        0.1999
     36 H          28.9465   41.9493    1.9173 H       1  LIG1        0.0287
     37 H          28.2119   43.3578    1.1601 H       1  LIG1        0.0287
     38 H          27.4467   41.7986    1.0477 H       1  LIG1        0.0287
     39 H          28.2553   44.4865    3.4578 H       1  LIG1        0.1999
     40 H          22.9522   38.3892    6.3063 H       1  LIG1        0.1437
     41 H          20.3269   42.4788    3.8471 H       1  LIG1        0.0838
     42 H          21.2395   38.7067    6.6030 H       1  LIG1        0.1437
     43 H          16.6613   40.8809    8.9516 H       1  LIG1        0.0278
     44 H          17.9571   42.0730    8.9359 H       1  LIG1        0.0278
     45 H          18.2961   40.4417    9.5254 H       1  LIG1        0.0278
     46 H          27.5603   43.8225    4.7842 H       1  LIG1        0.1999
@<TRIPOS>BOND
     1     1     2    1
     2     1     6    1
     3     1    16    1
     4     2     3    1
     5     2    24    1
     6     2    25    1
     7     3     4    1
     8     3    26    1
     9     3    27    1
    10     4     5    1
    11     4    22    1
    12     4    23    1
    13     5     6    1
    14     5    28    1
    15     5    29    1
    16     6    30    1
    17     6    31    1
    18     7     8   ar
    19     7    12   ar
    20     7    13    1
    21     8     9   ar
    22     8    20    1
    23     9    10   ar
    24     9    19    1
    25    10    11   ar
    26    10    32    1
    27    11    12   ar
    28    11    33    1
    29    12    34    1
    30    13    14   ar
    31    13    18   ar
    32    14    15   ar
    33    14    41    1
    34    15    16   ar
    35    16    17   ar
    36    17    18   ar
    37    18    21    1
    38    19    43    1
    39    19    44    1
    40    19    45    1
    41    21    40    1
    42    21    42    1
    43    22    35    1
    44    22    39    1
    45    22    46    1
    46    23    36    1
    47    23    37    1
    48    23    38    1
