@<TRIPOS>MOLECULE
Example 14
 40 42 0 0 0
SMALL
GASTEIGER
****
Structure written by MMmdl.
@<TRIPOS>ATOM
      1 C          19.8865   40.6092    5.5884 C.ar    1  LIG1        0.0234
      2 C          19.6598   40.8590    6.9585 C.ar    1  LIG1        0.0685
      3 C          18.4229   40.5299    7.5368 C.ar    1  LIG1        0.0599
      4 C          17.4200   39.9555    6.7590 C.ar    1  LIG1       -0.0419
      5 C          17.6448   39.6901    5.4111 C.ar    1  LIG1       -0.0597
      6 C          18.8649   40.0233    4.8318 C.ar    1  LIG1       -0.0510
      7 C          21.1867   40.8944    4.9175 C.ar    1  LIG1        0.1119
      8 N          21.1752   41.8933    3.9934 N.ar    1  LIG1       -0.2481
      9 C          22.3245   42.1535    3.3206 C.ar    1  LIG1        0.0683
     10 C          23.4937   41.4209    3.5525 C.ar    1  LIG1        0.1417
     11 N          23.5034   40.4202    4.4740 N.ar    1  LIG1       -0.2140
     12 C          22.3592   40.1611    5.1522 C.ar    1  LIG1        0.1445
     13 CL         18.0969   40.8222    9.2115 Cl      1  LIG1       -0.0820
     14 CL         20.8776   41.6192    7.9339 Cl      1  LIG1       -0.0814
     15 N          22.3961   39.1265    6.0772 N.pl3   1  LIG1       -0.3414
     16 N          24.7011   41.7162    2.9087 N.pl3   1  LIG1       -0.3135
     17 C          25.9868   41.0513    3.1197 C.3     1  LIG1        0.0212
     18 C          27.0755   41.9343    2.4916 C.3     1  LIG1        0.0162
     19 C          26.3258   42.4811    1.2882 C.3     1  LIG1       -0.0281
     20 C          24.8897   42.6468    1.7944 C.3     1  LIG1        0.0140
     21 C          27.6156   43.0653    3.4038 C.3     1  LIG1       -0.0310
     22 N          28.0786   42.5076    4.7524 N.4     1  LIG1        0.2188
     23 H          16.4712   39.6950    7.2057 H       1  LIG1        0.0633
     24 H          16.8784   39.2211    4.8120 H       1  LIG1        0.0618
     25 H          19.0255   39.7992    3.7864 H       1  LIG1        0.0625
     26 H          22.2991   42.9651    2.6087 H       1  LIG1        0.0865
     27 H          23.2561   38.6114    6.2391 H       1  LIG1        0.1438
     28 H          21.5551   38.8901    6.5802 H       1  LIG1        0.1438
     29 H          26.1639   40.8905    4.1833 H       1  LIG1        0.0469
     30 H          25.9729   40.0534    2.6763 H       1  LIG1        0.0469
     31 H          27.9165   41.3129    2.1734 H       1  LIG1        0.0368
     32 H          26.7503   43.4162    0.9197 H       1  LIG1        0.0285
     33 H          26.3508   41.7778    0.4544 H       1  LIG1        0.0285
     34 H          24.2023   42.3874    0.9869 H       1  LIG1        0.0464
     35 H          24.7023   43.6767    2.0993 H       1  LIG1        0.0464
     36 H          28.5093   43.5362    2.9910 H       1  LIG1        0.0816
     37 H          26.8805   43.8348    3.6483 H       1  LIG1        0.0816
     38 H          28.5580   43.2205    5.2998 H       1  LIG1        0.1994
     39 H          27.2981   42.1725    5.3061 H       1  LIG1        0.1994
     40 H          28.7303   41.7510    4.6055 H       1  LIG1        0.1994
@<TRIPOS>BOND
     1     1     2   ar
     2     1     6   ar
     3     1     7    1
     4     2     3   ar
     5     2    14    1
     6     3     4   ar
     7     3    13    1
     8     4     5   ar
     9     4    23    1
    10     5     6   ar
    11     5    24    1
    12     6    25    1
    13     7     8   ar
    14     7    12   ar
    15     8     9   ar
    16     9    10   ar
    17     9    26    1
    18    10    11   ar
    19    10    16    1
    20    11    12   ar
    21    12    15    1
    22    15    27    1
    23    15    28    1
    24    16    17    1
    25    16    20    1
    26    17    18    1
    27    17    29    1
    28    17    30    1
    29    18    19    1
    30    18    21    1
    31    18    31    1
    32    19    20    1
    33    19    32    1
    34    19    33    1
    35    20    34    1
    36    20    35    1
    37    21    22    1
    38    21    36    1
    39    21    37    1
    40    22    38    1
    41    22    39    1
    42    22    40    1
