Example 14
 OpenBabel02152110423D
Structure written by MMmdl.
 40 42  0  0  1  0  0  0  0  0999 V2000
   19.8865   40.6092    5.5884 C   0  0  0  0  0  0  0  0  0  0  0  0
   19.6598   40.8590    6.9585 C   0  0  0  0  0  0  0  0  0  0  0  0
   18.4229   40.5299    7.5368 C   0  0  0  0  0  0  0  0  0  0  0  0
   17.4200   39.9555    6.7590 C   0  0  0  0  0  0  0  0  0  0  0  0
   17.6448   39.6901    5.4111 C   0  0  0  0  0  0  0  0  0  0  0  0
   18.8649   40.0233    4.8318 C   0  0  0  0  0  0  0  0  0  0  0  0
   21.1867   40.8944    4.9175 C   0  0  0  0  0  0  0  0  0  0  0  0
   21.1752   41.8933    3.9934 N   0  0  0  0  0  0  0  0  0  0  0  0
   22.3245   42.1535    3.3206 C   0  0  0  0  0  0  0  0  0  0  0  0
   23.4937   41.4209    3.5525 C   0  0  0  0  0  0  0  0  0  0  0  0
   23.5034   40.4202    4.4740 N   0  0  0  0  0  0  0  0  0  0  0  0
   22.3592   40.1611    5.1522 C   0  0  0  0  0  0  0  0  0  0  0  0
   18.0969   40.8222    9.2115 Cl  0  0  0  0  0  0  0  0  0  0  0  0
   20.8776   41.6192    7.9339 Cl  0  0  0  0  0  0  0  0  0  0  0  0
   22.3961   39.1265    6.0772 N   0  0  0  0  0  0  0  0  0  0  0  0
   24.7011   41.7162    2.9087 N   0  0  0  0  0  0  0  0  0  0  0  0
   25.9868   41.0513    3.1197 C   0  0  0  0  0  0  0  0  0  0  0  0
   27.0755   41.9343    2.4916 C   0  0  1  0  0  0  0  0  0  0  0  0
   26.3258   42.4811    1.2882 C   0  0  0  0  0  0  0  0  0  0  0  0
   24.8897   42.6468    1.7944 C   0  0  0  0  0  0  0  0  0  0  0  0
   27.6156   43.0653    3.4038 C   0  0  0  0  0  0  0  0  0  0  0  0
   28.0786   42.5076    4.7524 N   0  3  0  0  0  0  0  0  0  0  0  0
   16.4712   39.6950    7.2057 H   0  0  0  0  0  0  0  0  0  0  0  0
   16.8784   39.2211    4.8120 H   0  0  0  0  0  0  0  0  0  0  0  0
   19.0255   39.7992    3.7864 H   0  0  0  0  0  0  0  0  0  0  0  0
   22.2991   42.9651    2.6087 H   0  0  0  0  0  0  0  0  0  0  0  0
   23.2561   38.6114    6.2391 H   0  0  0  0  0  0  0  0  0  0  0  0
   21.5551   38.8901    6.5802 H   0  0  0  0  0  0  0  0  0  0  0  0
   26.1639   40.8905    4.1833 H   0  0  0  0  0  0  0  0  0  0  0  0
   25.9729   40.0534    2.6763 H   0  0  0  0  0  0  0  0  0  0  0  0
   27.9165   41.3129    2.1734 H   0  0  0  0  0  0  0  0  0  0  0  0
   26.7503   43.4162    0.9197 H   0  0  0  0  0  0  0  0  0  0  0  0
   26.3508   41.7778    0.4544 H   0  0  0  0  0  0  0  0  0  0  0  0
   24.2023   42.3874    0.9869 H   0  0  0  0  0  0  0  0  0  0  0  0
   24.7023   43.6767    2.0993 H   0  0  0  0  0  0  0  0  0  0  0  0
   28.5093   43.5362    2.9910 H   0  0  0  0  0  0  0  0  0  0  0  0
   26.8805   43.8348    3.6483 H   0  0  0  0  0  0  0  0  0  0  0  0
   28.5580   43.2205    5.2998 H   0  0  0  0  0  0  0  0  0  0  0  0
   27.2981   42.1725    5.3061 H   0  0  0  0  0  0  0  0  0  0  0  0
   28.7303   41.7510    4.6055 H   0  0  0  0  0  0  0  0  0  0  0  0
  1  2  2  0  0  0  0
  1  6  1  0  0  0  0
  1  7  1  0  0  0  0
  2  3  1  0  0  0  0
  2 14  1  0  0  0  0
  3  4  2  0  0  0  0
  3 13  1  0  0  0  0
  4  5  1  0  0  0  0
  4 23  1  0  0  0  0
  5  6  2  0  0  0  0
  5 24  1  0  0  0  0
  6 25  1  0  0  0  0
  7  8  2  0  0  0  0
  7 12  1  0  0  0  0
  8  9  1  0  0  0  0
  9 10  2  0  0  0  0
  9 26  1  0  0  0  0
 10 11  1  0  0  0  0
 10 16  1  0  0  0  0
 11 12  2  0  0  0  0
 12 15  1  0  0  0  0
 15 27  1  0  0  0  0
 15 28  1  0  0  0  0
 16 17  1  0  0  0  0
 16 20  1  0  0  0  0
 17 18  1  0  0  0  0
 17 29  1  0  0  0  0
 17 30  1  0  0  0  0
 18 19  1  0  0  0  0
 18 21  1  0  0  0  0
 18 31  1  6  0  0  0
 19 20  1  0  0  0  0
 19 32  1  0  0  0  0
 19 33  1  0  0  0  0
 20 34  1  0  0  0  0
 20 35  1  0  0  0  0
 21 22  1  0  0  0  0
 21 36  1  0  0  0  0
 21 37  1  0  0  0  0
 22 38  1  0  0  0  0
 22 39  1  0  0  0  0
 22 40  1  0  0  0  0
M  CHG  1  22   1
M  END
>  <ID>
Example 14

>  <IC50 uM>
0.068

$$$$
