@<TRIPOS>MOLECULE
Example 26
 47 49 0 0 0
SMALL
GASTEIGER
****
Structure written by MMmdl.
@<TRIPOS>ATOM
      1 N          24.5435   41.5792    3.1196 N.pl3   1  LIG1       -0.3129
      2 C          25.5708   40.5464    2.8814 C.3     1  LIG1        0.0189
      3 C          26.9534   40.9118    3.4847 C.3     1  LIG1        0.0086
      4 C          27.4593   42.3280    3.1172 C.3     1  LIG1       -0.0135
      5 C          26.2942   43.3330    3.1459 C.3     1  LIG1        0.0086
      6 C          24.9972   42.8297    2.5111 C.3     1  LIG1        0.0189
      7 C          19.6889   40.5703    5.7978 C.ar    1  LIG1        0.0234
      8 C          19.5320   40.8408    7.1712 C.ar    1  LIG1        0.0685
      9 C          18.3134   40.5554    7.8069 C.ar    1  LIG1        0.0599
     10 C          17.2570   40.0202    7.0752 C.ar    1  LIG1       -0.0419
     11 C          17.4064   39.7521    5.7172 C.ar    1  LIG1       -0.0597
     12 C          18.6163   40.0206    5.0855 C.ar    1  LIG1       -0.0510
     13 C          20.9719   40.8186    5.0870 C.ar    1  LIG1        0.1128
     14 N          20.9540   41.8118    4.1678 N.ar    1  LIG1       -0.2351
     15 C          22.0756   42.0762    3.4406 C.ar    1  LIG1        0.1656
     16 C          23.2791   41.3456    3.6789 C.ar    1  LIG1        0.1542
     17 N          23.2692   40.3395    4.6027 N.ar    1  LIG1       -0.2132
     18 C          22.1341   40.0692    5.2876 C.ar    1  LIG1        0.1446
     19 CL         18.0784   40.8427    9.4962 Cl      1  LIG1       -0.0820
     20 CL         20.8203   41.5878    8.0632 Cl      1  LIG1       -0.0814
     21 N          22.1669   39.0114    6.1899 N.pl3   1  LIG1       -0.3414
     22 C          27.9555   42.2509    1.6614 C.3     1  LIG1       -0.0187
     23 N          28.6011   42.7994    3.9160 N.4     1  LIG1        0.2228
     24 C          21.8219   43.0847    2.3396 C.2     1  LIG1        0.2633
     25 N          22.3538   42.8247    1.1534 N.am    1  LIG1       -0.3240
     26 O          21.0327   44.0184    2.4666 O.2     1  LIG1       -0.2686
     27 H          25.2579   39.5917    3.2986 H       1  LIG1        0.0466
     28 H          25.6526   40.3775    1.8069 H       1  LIG1        0.0466
     29 H          27.6770   40.1611    3.1633 H       1  LIG1        0.0338
     30 H          26.8956   40.7970    4.5696 H       1  LIG1        0.0338
     31 H          26.5440   44.2572    2.6300 H       1  LIG1        0.0338
     32 H          26.0824   43.6211    4.1756 H       1  LIG1        0.0338
     33 H          24.2748   43.6201    2.6763 H       1  LIG1        0.0466
     34 H          25.1052   42.7110    1.4315 H       1  LIG1        0.0466
     35 H          16.3185   39.7955    7.5604 H       1  LIG1        0.0633
     36 H          16.5894   39.3207    5.1563 H       1  LIG1        0.0618
     37 H          18.7190   39.7914    4.0335 H       1  LIG1        0.0625
     38 H          23.0375   38.5148    6.3535 H       1  LIG1        0.1438
     39 H          21.3404   38.7890    6.7207 H       1  LIG1        0.1438
     40 H          22.1176   43.4003    0.3593 H       1  LIG1        0.1453
     41 H          22.9929   42.0544    1.0175 H       1  LIG1        0.1453
     42 H          28.8653   43.7258    3.6125 H       1  LIG1        0.1999
     43 H          28.3416   42.8266    4.8917 H       1  LIG1        0.1999
     44 H          29.3810   42.1696    3.7926 H       1  LIG1        0.1999
     45 H          28.3665   43.1464    1.1723 H       1  LIG1        0.0287
     46 H          27.1612   41.8402    1.0380 H       1  LIG1        0.0287
     47 H          28.6769   41.4383    1.5758 H       1  LIG1        0.0287
@<TRIPOS>BOND
     1     1     2    1
     2     1     6    1
     3     1    16    1
     4     2     3    1
     5     2    27    1
     6     2    28    1
     7     3     4    1
     8     3    29    1
     9     3    30    1
    10     4     5    1
    11     4    22    1
    12     4    23    1
    13     5     6    1
    14     5    31    1
    15     5    32    1
    16     6    33    1
    17     6    34    1
    18     7     8   ar
    19     7    12   ar
    20     7    13    1
    21     8     9   ar
    22     8    20    1
    23     9    10   ar
    24     9    19    1
    25    10    11   ar
    26    10    35    1
    27    11    12   ar
    28    11    36    1
    29    12    37    1
    30    13    14   ar
    31    13    18   ar
    32    14    15   ar
    33    15    16   ar
    34    15    24    1
    35    16    17   ar
    36    17    18   ar
    37    18    21    1
    38    21    38    1
    39    21    39    1
    40    22    45    1
    41    22    46    1
    42    22    47    1
    43    23    42    1
    44    23    43    1
    45    23    44    1
    46    24    25   am
    47    24    26    2
    48    25    40    1
    49    25    41    1
