Example 26
 OpenBabel02152110423D
Structure written by MMmdl.
 47 49  0  0  1  0  0  0  0  0999 V2000
   24.5435   41.5792    3.1196 N   0  0  0  0  0  0  0  0  0  0  0  0
   25.5708   40.5464    2.8814 C   0  0  0  0  0  0  0  0  0  0  0  0
   26.9534   40.9118    3.4847 C   0  0  0  0  0  0  0  0  0  0  0  0
   27.4593   42.3280    3.1172 C   0  0  0  0  0  0  0  0  0  0  0  0
   26.2942   43.3330    3.1459 C   0  0  0  0  0  0  0  0  0  0  0  0
   24.9972   42.8297    2.5111 C   0  0  0  0  0  0  0  0  0  0  0  0
   19.6889   40.5703    5.7978 C   0  0  0  0  0  0  0  0  0  0  0  0
   19.5320   40.8408    7.1712 C   0  0  0  0  0  0  0  0  0  0  0  0
   18.3134   40.5554    7.8069 C   0  0  0  0  0  0  0  0  0  0  0  0
   17.2570   40.0202    7.0752 C   0  0  0  0  0  0  0  0  0  0  0  0
   17.4064   39.7521    5.7172 C   0  0  0  0  0  0  0  0  0  0  0  0
   18.6163   40.0206    5.0855 C   0  0  0  0  0  0  0  0  0  0  0  0
   20.9719   40.8186    5.0870 C   0  0  0  0  0  0  0  0  0  0  0  0
   20.9540   41.8118    4.1678 N   0  0  0  0  0  0  0  0  0  0  0  0
   22.0756   42.0762    3.4406 C   0  0  0  0  0  0  0  0  0  0  0  0
   23.2791   41.3456    3.6789 C   0  0  0  0  0  0  0  0  0  0  0  0
   23.2692   40.3395    4.6027 N   0  0  0  0  0  0  0  0  0  0  0  0
   22.1341   40.0692    5.2876 C   0  0  0  0  0  0  0  0  0  0  0  0
   18.0784   40.8427    9.4962 Cl  0  0  0  0  0  0  0  0  0  0  0  0
   20.8203   41.5878    8.0632 Cl  0  0  0  0  0  0  0  0  0  0  0  0
   22.1669   39.0114    6.1899 N   0  0  0  0  0  0  0  0  0  0  0  0
   27.9555   42.2509    1.6614 C   0  0  0  0  0  0  0  0  0  0  0  0
   28.6011   42.7994    3.9160 N   0  3  0  0  0  0  0  0  0  0  0  0
   21.8219   43.0847    2.3396 C   0  0  0  0  0  0  0  0  0  0  0  0
   22.3538   42.8247    1.1534 N   0  0  0  0  0  0  0  0  0  0  0  0
   21.0327   44.0184    2.4666 O   0  0  0  0  0  0  0  0  0  0  0  0
   25.2579   39.5917    3.2986 H   0  0  0  0  0  0  0  0  0  0  0  0
   25.6526   40.3775    1.8069 H   0  0  0  0  0  0  0  0  0  0  0  0
   27.6770   40.1611    3.1633 H   0  0  0  0  0  0  0  0  0  0  0  0
   26.8956   40.7970    4.5696 H   0  0  0  0  0  0  0  0  0  0  0  0
   26.5440   44.2572    2.6300 H   0  0  0  0  0  0  0  0  0  0  0  0
   26.0824   43.6211    4.1756 H   0  0  0  0  0  0  0  0  0  0  0  0
   24.2748   43.6201    2.6763 H   0  0  0  0  0  0  0  0  0  0  0  0
   25.1052   42.7110    1.4315 H   0  0  0  0  0  0  0  0  0  0  0  0
   16.3185   39.7955    7.5604 H   0  0  0  0  0  0  0  0  0  0  0  0
   16.5894   39.3207    5.1563 H   0  0  0  0  0  0  0  0  0  0  0  0
   18.7190   39.7914    4.0335 H   0  0  0  0  0  0  0  0  0  0  0  0
   23.0375   38.5148    6.3535 H   0  0  0  0  0  0  0  0  0  0  0  0
   21.3404   38.7890    6.7207 H   0  0  0  0  0  0  0  0  0  0  0  0
   22.1176   43.4003    0.3593 H   0  0  0  0  0  0  0  0  0  0  0  0
   22.9929   42.0544    1.0175 H   0  0  0  0  0  0  0  0  0  0  0  0
   28.8653   43.7258    3.6125 H   0  0  0  0  0  0  0  0  0  0  0  0
   28.3416   42.8266    4.8917 H   0  0  0  0  0  0  0  0  0  0  0  0
   29.3810   42.1696    3.7926 H   0  0  0  0  0  0  0  0  0  0  0  0
   28.3665   43.1464    1.1723 H   0  0  0  0  0  0  0  0  0  0  0  0
   27.1612   41.8402    1.0380 H   0  0  0  0  0  0  0  0  0  0  0  0
   28.6769   41.4383    1.5758 H   0  0  0  0  0  0  0  0  0  0  0  0
  1  2  1  0  0  0  0
  1  6  1  0  0  0  0
  1 16  1  0  0  0  0
  2  3  1  0  0  0  0
  2 27  1  0  0  0  0
  2 28  1  0  0  0  0
  3  4  1  0  0  0  0
  3 29  1  0  0  0  0
  3 30  1  0  0  0  0
  4  5  1  0  0  0  0
  4 22  1  0  0  0  0
  4 23  1  0  0  0  0
  5  6  1  0  0  0  0
  5 31  1  0  0  0  0
  5 32  1  0  0  0  0
  6 33  1  0  0  0  0
  6 34  1  0  0  0  0
  7  8  2  0  0  0  0
  7 12  1  0  0  0  0
  7 13  1  0  0  0  0
  8  9  1  0  0  0  0
  8 20  1  0  0  0  0
  9 10  2  0  0  0  0
  9 19  1  0  0  0  0
 10 11  1  0  0  0  0
 10 35  1  0  0  0  0
 11 12  2  0  0  0  0
 11 36  1  0  0  0  0
 12 37  1  0  0  0  0
 13 14  2  0  0  0  0
 13 18  1  0  0  0  0
 14 15  1  0  0  0  0
 15 16  2  0  0  0  0
 15 24  1  0  0  0  0
 16 17  1  0  0  0  0
 17 18  2  0  0  0  0
 18 21  1  0  0  0  0
 21 38  1  0  0  0  0
 21 39  1  0  0  0  0
 22 45  1  0  0  0  0
 22 46  1  0  0  0  0
 22 47  1  0  0  0  0
 23 42  1  0  0  0  0
 23 43  1  0  0  0  0
 23 44  1  0  0  0  0
 24 25  1  0  0  0  0
 24 26  2  0  0  0  0
 25 40  1  0  0  0  0
 25 41  1  0  0  0  0
M  CHG  1  23   1
M  END
>  <ID>
Example 26

>  <IC50 uM>
0.271

$$$$
