@<TRIPOS>MOLECULE
SHP836-2
 43 45 0 0 0
SMALL
GASTEIGER
****
Structure written by MMmdl.
@<TRIPOS>ATOM
      1 N          24.6991   41.2880    3.1084 N.pl3   1  LIG1       -0.2889
      2 C          24.7544   42.3659    2.0828 C.3     1  LIG1        0.0577
      3 C          26.0819   43.1849    2.0777 C.3     1  LIG1       -0.0091
      4 N          27.2540   42.3327    2.4127 N.4     1  LIG1        0.2332
      5 C          27.1216   41.4947    3.6356 C.3     1  LIG1       -0.0091
      6 C          25.9265   40.5256    3.4438 C.3     1  LIG1        0.0577
      7 C          19.7062   40.2071    5.4923 C.ar    1  LIG1        0.0066
      8 C          19.4758   40.5221    6.8291 C.ar    1  LIG1        0.0671
      9 C          18.1971   40.3798    7.3797 C.ar    1  LIG1        0.0598
     10 C          17.1161   39.9866    6.5815 C.ar    1  LIG1       -0.0419
     11 C          17.3356   39.6937    5.2208 C.ar    1  LIG1       -0.0597
     12 C          18.6213   39.8380    4.6722 C.ar    1  LIG1       -0.0524
     13 C          21.0642   40.4372    4.9252 C.ar    1  LIG1        0.0413
     14 C          21.1830   41.4378    3.9557 C.ar    1  LIG1        0.0422
     15 N          22.3711   41.6614    3.3749 N.ar    1  LIG1       -0.2220
     16 C          23.5007   40.9783    3.7010 C.ar    1  LIG1        0.2198
     17 N          23.3990   40.0008    4.6377 N.ar    1  LIG1       -0.1992
     18 C          22.2307   39.6970    5.2474 C.ar    1  LIG1        0.1291
     19 CL         17.9053   40.7260    9.0476 Cl      1  LIG1       -0.0820
     20 CL         20.7793   41.0806    7.8271 Cl      1  LIG1       -0.0814
     21 N          22.2243   38.6162    6.2289 N.pl3   1  LIG1       -0.3425
     22 C          26.2804   43.8713    0.7588 C.3     1  LIG1       -0.0202
     23 C          28.3857   40.7219    3.8699 C.3     1  LIG1       -0.0202
     24 H          23.9260   43.0695    2.1829 H       1  LIG1        0.0520
     25 H          24.6132   41.8870    1.1126 H       1  LIG1        0.0520
     26 H          26.0127   43.9714    2.8315 H       1  LIG1        0.0863
     27 H          28.0684   42.9226    2.5058 H       1  LIG1        0.2020
     28 H          26.9647   42.1292    4.5101 H       1  LIG1        0.0863
     29 H          25.8054   39.9385    4.3559 H       1  LIG1        0.0520
     30 H          26.1227   39.8070    2.6470 H       1  LIG1        0.0520
     31 H          16.1290   39.8934    7.0111 H       1  LIG1        0.0633
     32 H          16.5096   39.3856    4.5953 H       1  LIG1        0.0618
     33 H          18.7713   39.6322    3.6215 H       1  LIG1        0.0624
     34 H          20.3447   42.0392    3.6354 H       1  LIG1        0.0838
     35 H          21.3665   38.3671    6.7002 H       1  LIG1        0.1437
     36 H          23.0777   38.1175    6.4364 H       1  LIG1        0.1437
     37 H          25.4101   44.4885    0.5358 H       1  LIG1        0.0285
     38 H          26.4061   43.1238   -0.0245 H       1  LIG1        0.0285
     39 H          27.1693   44.5003    0.8067 H       1  LIG1        0.0285
     40 H          28.2778   40.1122    4.7670 H       1  LIG1        0.0285
     41 H          29.2167   41.4153    3.9996 H       1  LIG1        0.0285
     42 H          28.5812   40.0767    3.0134 H       1  LIG1        0.0285
     43 H          27.3969   41.7025    1.6369 H       1  LIG1        0.2020
@<TRIPOS>BOND
     1     1     2    1
     2     1     6    1
     3     1    16    1
     4     2     3    1
     5     2    24    1
     6     2    25    1
     7     3     4    1
     8     3    22    1
     9     3    26    1
    10     4     5    1
    11     4    27    1
    12     4    43    1
    13     5     6    1
    14     5    23    1
    15     5    28    1
    16     6    29    1
    17     6    30    1
    18     7     8   ar
    19     7    12   ar
    20     7    13    1
    21     8     9   ar
    22     8    20    1
    23     9    10   ar
    24     9    19    1
    25    10    11   ar
    26    10    31    1
    27    11    12   ar
    28    11    32    1
    29    12    33    1
    30    13    14   ar
    31    13    18   ar
    32    14    15   ar
    33    14    34    1
    34    15    16   ar
    35    16    17   ar
    36    17    18   ar
    37    18    21    1
    38    21    35    1
    39    21    36    1
    40    22    37    1
    41    22    38    1
    42    22    39    1
    43    23    40    1
    44    23    41    1
    45    23    42    1
