SHP836-2
 OpenBabel02152110423D
Structure written by MMmdl.
 43 45  0  0  1  0  0  0  0  0999 V2000
   24.6991   41.2880    3.1084 N   0  0  0  0  0  0  0  0  0  0  0  0
   24.7544   42.3659    2.0828 C   0  0  0  0  0  0  0  0  0  0  0  0
   26.0819   43.1849    2.0777 C   0  0  1  0  0  0  0  0  0  0  0  0
   27.2540   42.3327    2.4127 N   0  3  0  0  0  0  0  0  0  0  0  0
   27.1216   41.4947    3.6356 C   0  0  1  0  0  0  0  0  0  0  0  0
   25.9265   40.5256    3.4438 C   0  0  0  0  0  0  0  0  0  0  0  0
   19.7062   40.2071    5.4923 C   0  0  0  0  0  0  0  0  0  0  0  0
   19.4758   40.5221    6.8291 C   0  0  0  0  0  0  0  0  0  0  0  0
   18.1971   40.3798    7.3797 C   0  0  0  0  0  0  0  0  0  0  0  0
   17.1161   39.9866    6.5815 C   0  0  0  0  0  0  0  0  0  0  0  0
   17.3356   39.6937    5.2208 C   0  0  0  0  0  0  0  0  0  0  0  0
   18.6213   39.8380    4.6722 C   0  0  0  0  0  0  0  0  0  0  0  0
   21.0642   40.4372    4.9252 C   0  0  0  0  0  0  0  0  0  0  0  0
   21.1830   41.4378    3.9557 C   0  0  0  0  0  0  0  0  0  0  0  0
   22.3711   41.6614    3.3749 N   0  0  0  0  0  0  0  0  0  0  0  0
   23.5007   40.9783    3.7010 C   0  0  0  0  0  0  0  0  0  0  0  0
   23.3990   40.0008    4.6377 N   0  0  0  0  0  0  0  0  0  0  0  0
   22.2307   39.6970    5.2474 C   0  0  0  0  0  0  0  0  0  0  0  0
   17.9053   40.7260    9.0476 Cl  0  0  0  0  0  0  0  0  0  0  0  0
   20.7793   41.0806    7.8271 Cl  0  0  0  0  0  0  0  0  0  0  0  0
   22.2243   38.6162    6.2289 N   0  0  0  0  0  0  0  0  0  0  0  0
   26.2804   43.8713    0.7588 C   0  0  0  0  0  0  0  0  0  0  0  0
   28.3857   40.7219    3.8699 C   0  0  0  0  0  0  0  0  0  0  0  0
   23.9260   43.0695    2.1829 H   0  0  0  0  0  0  0  0  0  0  0  0
   24.6132   41.8870    1.1126 H   0  0  0  0  0  0  0  0  0  0  0  0
   26.0127   43.9714    2.8315 H   0  0  0  0  0  0  0  0  0  0  0  0
   28.0684   42.9226    2.5058 H   0  0  0  0  0  0  0  0  0  0  0  0
   26.9647   42.1292    4.5101 H   0  0  0  0  0  0  0  0  0  0  0  0
   25.8054   39.9385    4.3559 H   0  0  0  0  0  0  0  0  0  0  0  0
   26.1227   39.8070    2.6470 H   0  0  0  0  0  0  0  0  0  0  0  0
   16.1290   39.8934    7.0111 H   0  0  0  0  0  0  0  0  0  0  0  0
   16.5096   39.3856    4.5953 H   0  0  0  0  0  0  0  0  0  0  0  0
   18.7713   39.6322    3.6215 H   0  0  0  0  0  0  0  0  0  0  0  0
   20.3447   42.0392    3.6354 H   0  0  0  0  0  0  0  0  0  0  0  0
   21.3665   38.3671    6.7002 H   0  0  0  0  0  0  0  0  0  0  0  0
   23.0777   38.1175    6.4364 H   0  0  0  0  0  0  0  0  0  0  0  0
   25.4101   44.4885    0.5358 H   0  0  0  0  0  0  0  0  0  0  0  0
   26.4061   43.1238   -0.0245 H   0  0  0  0  0  0  0  0  0  0  0  0
   27.1693   44.5003    0.8067 H   0  0  0  0  0  0  0  0  0  0  0  0
   28.2778   40.1122    4.7670 H   0  0  0  0  0  0  0  0  0  0  0  0
   29.2167   41.4153    3.9996 H   0  0  0  0  0  0  0  0  0  0  0  0
   28.5812   40.0767    3.0134 H   0  0  0  0  0  0  0  0  0  0  0  0
   27.3969   41.7025    1.6369 H   0  0  0  0  0  0  0  0  0  0  0  0
  1  2  1  0  0  0  0
  1  6  1  0  0  0  0
  1 16  1  0  0  0  0
  2  3  1  0  0  0  0
  2 24  1  0  0  0  0
  2 25  1  0  0  0  0
  3  4  1  0  0  0  0
  3 22  1  0  0  0  0
  3 26  1  1  0  0  0
  4  5  1  0  0  0  0
  4 27  1  0  0  0  0
  4 43  1  0  0  0  0
  5  6  1  0  0  0  0
  5 23  1  0  0  0  0
  5 28  1  1  0  0  0
  6 29  1  0  0  0  0
  6 30  1  0  0  0  0
  7  8  2  0  0  0  0
  7 12  1  0  0  0  0
  7 13  1  0  0  0  0
  8  9  1  0  0  0  0
  8 20  1  0  0  0  0
  9 10  2  0  0  0  0
  9 19  1  0  0  0  0
 10 11  1  0  0  0  0
 10 31  1  0  0  0  0
 11 12  2  0  0  0  0
 11 32  1  0  0  0  0
 12 33  1  0  0  0  0
 13 14  2  0  0  0  0
 13 18  1  0  0  0  0
 14 15  1  0  0  0  0
 14 34  1  0  0  0  0
 15 16  2  0  0  0  0
 16 17  1  0  0  0  0
 17 18  2  0  0  0  0
 18 21  1  0  0  0  0
 21 35  1  0  0  0  0
 21 36  1  0  0  0  0
 22 37  1  0  0  0  0
 22 38  1  0  0  0  0
 22 39  1  0  0  0  0
 23 40  1  0  0  0  0
 23 41  1  0  0  0  0
 23 42  1  0  0  0  0
M  CHG  1   4   1
M  END
>  <ID>
SHP836-2

>  <IC50 uM>
12

$$$$
