@<TRIPOS>MOLECULE
lig_ejm_48
 42 44 0 0 0
SMALL
GASTEIGER

@<TRIPOS>ATOM
      1 C          -1.9600   21.5500  -27.3300 C.ar    1  LIG1       -0.0590
      2 C          -1.2900   22.4100  -28.2000 C.ar    1  LIG1       -0.0426
      3 C          -1.9600   22.9500  -29.2900 C.ar    1  LIG1        0.0545
      4 C          -3.3000   22.6200  -29.5400 C.ar    1  LIG1        0.0735
      5 C          -3.9700   21.7600  -28.6500 C.ar    1  LIG1        0.0545
      6 C          -3.2900   21.2300  -27.5600 C.ar    1  LIG1       -0.0426
      7 CL         -5.6400   21.3500  -28.9200 Cl      1  LIG1       -0.0827
      8 C          -4.0400   23.1500  -30.7100 C.2     1  LIG1        0.2511
      9 O          -4.2300   22.4200  -31.6700 O.2     1  LIG1       -0.2698
     10 N          -4.5100   24.4100  -30.6500 N.am    1  LIG1       -0.2813
     11 C          -5.2900   25.1100  -31.5800 C.ar    1  LIG1        0.0384
     12 C          -5.9600   24.5500  -32.6800 C.ar    1  LIG1       -0.0222
     13 C          -6.7800   25.3600  -33.4600 C.ar    1  LIG1        0.0314
     14 N          -6.9200   26.6500  -33.1800 N.ar    1  LIG1       -0.2400
     15 C          -6.3000   27.2300  -32.1600 C.ar    1  LIG1        0.1266
     16 C          -5.5100   26.4600  -31.3100 C.ar    1  LIG1       -0.0003
     17 N          -6.5400   28.5800  -31.8800 N.am    1  LIG1       -0.2701
     18 C          -5.7100   29.4500  -31.2300 C.2     1  LIG1        0.2213
     19 O          -4.6200   29.1200  -30.8100 O.2     1  LIG1       -0.2751
     20 CL         -1.1100   24.0500  -30.3300 Cl      1  LIG1       -0.0827
     21 H          -1.4400   21.1300  -26.4800 H       1  LIG1        0.0618
     22 H          -0.2600   22.6600  -28.0200 H       1  LIG1        0.0632
     23 H          -3.8100   20.5600  -26.8900 H       1  LIG1        0.0632
     24 H          -4.3200   24.9800  -29.8400 H       1  LIG1        0.1551
     25 H          -5.8400   23.5000  -32.9100 H       1  LIG1        0.0651
     26 H          -7.3100   24.9400  -34.3000 H       1  LIG1        0.0831
     27 H          -5.0600   26.9100  -30.4300 H       1  LIG1        0.0671
     28 H          -7.4000   29.0100  -32.1800 H       1  LIG1        0.1562
     29 H          -7.2800   30.9700  -31.1500 H       1  LIG1        0.0394
     30 C          -6.1800   30.8800  -31.0200 C.3     1  LIG1        0.0359
     31 C          -5.7800   31.3300  -29.6000 C.3     1  LIG1       -0.0419
     32 C          -4.4000   31.9800  -29.8000 C.3     1  LIG1       -0.0523
     33 C          -4.5900   32.7500  -31.1000 C.3     1  LIG1       -0.0523
     34 C          -5.4200   31.8100  -31.9800 C.3     1  LIG1       -0.0419
     35 H          -5.7600   30.4900  -28.8700 H       1  LIG1        0.0272
     36 H          -6.5000   32.1000  -29.2300 H       1  LIG1        0.0272
     37 H          -4.1000   32.6300  -28.9400 H       1  LIG1        0.0265
     38 H          -3.6300   31.1900  -29.9300 H       1  LIG1        0.0265
     39 H          -5.1600   33.6900  -30.9000 H       1  LIG1        0.0265
     40 H          -3.6100   33.0400  -31.5700 H       1  LIG1        0.0265
     41 H          -4.7500   31.2100  -32.6400 H       1  LIG1        0.0272
     42 H          -6.1100   32.3900  -32.6500 H       1  LIG1        0.0272
@<TRIPOS>BOND
     1    13    26    1
     2    13    14   ar
     3    12    13   ar
     4    14    15   ar
     5    12    25    1
     6    11    12   ar
     7    34    42    1
     8    34    41    1
     9    17    28    1
    10    15    17    1
    11    15    16   ar
    12    33    34    1
    13    30    34    1
    14    17    18   am
    15     8     9    2
    16    11    16   ar
    17    10    11    1
    18    33    40    1
    19    16    27    1
    20    18    30    1
    21    18    19    2
    22    29    30    1
    23    33    39    1
    24    32    33    1
    25    30    31    1
    26     8    10   am
    27     4     8    1
    28    10    24    1
    29     3    20    1
    30    32    38    1
    31    31    32    1
    32    32    37    1
    33    31    36    1
    34    31    35    1
    35     3     4   ar
    36     4     5   ar
    37     2     3   ar
    38     5     7    1
    39     5     6   ar
    40     2    22    1
    41     1     2   ar
    42     1     6   ar
    43     6    23    1
    44     1    21    1
