@<TRIPOS>MOLECULE
lig_jmc_30
 37 39 0 0 0
SMALL
GASTEIGER

@<TRIPOS>ATOM
      1 C          -1.9600   21.5500  -27.3300 C.ar    1  LIG1       -0.0590
      2 C          -1.2900   22.4100  -28.2000 C.ar    1  LIG1       -0.0426
      3 C          -1.9600   22.9500  -29.2900 C.ar    1  LIG1        0.0545
      4 C          -3.3000   22.6200  -29.5400 C.ar    1  LIG1        0.0735
      5 C          -3.9700   21.7600  -28.6500 C.ar    1  LIG1        0.0545
      6 C          -3.2900   21.2300  -27.5600 C.ar    1  LIG1       -0.0426
      7 CL         -5.6400   21.3500  -28.9200 Cl      1  LIG1       -0.0827
      8 C          -4.0400   23.1500  -30.7100 C.2     1  LIG1        0.2511
      9 O          -4.2300   22.4200  -31.6700 O.2     1  LIG1       -0.2698
     10 N          -4.5100   24.4100  -30.6500 N.am    1  LIG1       -0.2813
     11 C          -5.2900   25.1100  -31.5800 C.ar    1  LIG1        0.0384
     12 C          -5.9600   24.5500  -32.6800 C.ar    1  LIG1       -0.0222
     13 C          -6.7800   25.3600  -33.4600 C.ar    1  LIG1        0.0314
     14 N          -6.9200   26.6500  -33.1800 N.ar    1  LIG1       -0.2400
     15 C          -6.3000   27.2300  -32.1600 C.ar    1  LIG1        0.1266
     16 C          -5.5100   26.4600  -31.3100 C.ar    1  LIG1       -0.0003
     17 N          -6.5400   28.5800  -31.8800 N.am    1  LIG1       -0.2701
     18 C          -5.7100   29.4500  -31.2300 C.2     1  LIG1        0.2226
     19 O          -4.6200   29.1200  -30.8100 O.2     1  LIG1       -0.2751
     20 C          -6.2300   30.8500  -31.0300 C.3     1  LIG1        0.0526
     21 C          -5.5800   31.7500  -29.9800 C.3     1  LIG1       -0.0243
     22 C          -5.3600   32.0200  -31.4700 C.3     1  LIG1        0.0580
     23 C          -4.0200   31.7000  -32.0500 C.1     1  LIG1        0.0667
     24 CL         -1.1100   24.0500  -30.3300 Cl      1  LIG1       -0.0827
     25 H          -7.3100   30.9400  -31.1600 H       1  LIG1        0.0407
     26 H          -5.8600   32.9000  -31.8800 H       1  LIG1        0.0461
     27 H          -1.4400   21.1300  -26.4800 H       1  LIG1        0.0618
     28 H          -0.2600   22.6600  -28.0200 H       1  LIG1        0.0632
     29 H          -3.8100   20.5600  -26.8900 H       1  LIG1        0.0632
     30 H          -4.3200   24.9800  -29.8400 H       1  LIG1        0.1551
     31 H          -5.8400   23.5000  -32.9100 H       1  LIG1        0.0651
     32 H          -7.3100   24.9400  -34.3000 H       1  LIG1        0.0831
     33 H          -5.0600   26.9100  -30.4300 H       1  LIG1        0.0671
     34 H          -7.4000   29.0100  -32.1800 H       1  LIG1        0.1562
     35 H          -6.3500   32.2000  -29.3600 H       1  LIG1        0.0285
     36 H          -4.9200   31.1500  -29.3500 H       1  LIG1        0.0285
     37 N          -2.7000   31.3800  -32.6200 N.1     1  LIG1       -0.1963
@<TRIPOS>BOND
     1     1     2   ar
     2     1     6   ar
     3     1    27    1
     4     2     3   ar
     5     2    28    1
     6     3    24    1
     7     3     4   ar
     8     4     8    1
     9     4     5   ar
    10     5     7    1
    11     5     6   ar
    12     6    29    1
    13     8     9    2
    14     8    10   am
    15    10    11    1
    16    10    30    1
    17    11    12   ar
    18    11    16   ar
    19    12    13   ar
    20    12    31    1
    21    13    32    1
    22    13    14   ar
    23    14    15   ar
    24    15    17    1
    25    15    16   ar
    26    16    33    1
    27    17    34    1
    28    17    18   am
    29    18    20    1
    30    18    19    2
    31    20    22    1
    32    20    25    1
    33    20    21    1
    34    21    22    1
    35    21    35    1
    36    21    36    1
    37    22    23    1
    38    22    26    1
    39    23    37    3
