@<TRIPOS>MOLECULE
lig_ejm_42
 35 36 0 0 0
SMALL
GASTEIGER

@<TRIPOS>ATOM
      1 C          -1.9600   21.5500  -27.3300 C.ar    1  LIG1       -0.0590
      2 C          -1.2900   22.4100  -28.2000 C.ar    1  LIG1       -0.0426
      3 C          -1.9600   22.9500  -29.2900 C.ar    1  LIG1        0.0545
      4 C          -3.3000   22.6200  -29.5400 C.ar    1  LIG1        0.0735
      5 C          -3.9700   21.7600  -28.6500 C.ar    1  LIG1        0.0545
      6 C          -3.2900   21.2300  -27.5600 C.ar    1  LIG1       -0.0426
      7 CL         -5.6400   21.3500  -28.9200 Cl      1  LIG1       -0.0827
      8 C          -4.0400   23.1500  -30.7100 C.2     1  LIG1        0.2511
      9 O          -4.2300   22.4200  -31.6700 O.2     1  LIG1       -0.2698
     10 N          -4.5100   24.4100  -30.6500 N.am    1  LIG1       -0.2813
     11 C          -5.2900   25.1100  -31.5800 C.ar    1  LIG1        0.0384
     12 C          -5.9600   24.5500  -32.6800 C.ar    1  LIG1       -0.0222
     13 C          -6.7800   25.3600  -33.4600 C.ar    1  LIG1        0.0314
     14 N          -6.9200   26.6500  -33.1800 N.ar    1  LIG1       -0.2400
     15 C          -6.3000   27.2300  -32.1600 C.ar    1  LIG1        0.1266
     16 C          -5.5100   26.4600  -31.3100 C.ar    1  LIG1       -0.0003
     17 N          -6.5400   28.5800  -31.8800 N.am    1  LIG1       -0.2703
     18 C          -5.7100   29.4500  -31.2300 C.2     1  LIG1        0.2180
     19 O          -4.6200   29.1200  -30.8100 O.2     1  LIG1       -0.2754
     20 C          -6.2300   30.8500  -31.0300 C.3     1  LIG1        0.0215
     21 CL         -1.1100   24.0500  -30.3300 Cl      1  LIG1       -0.0827
     22 H          -6.7600   31.2500  -31.8900 H       1  LIG1        0.0356
     23 H          -1.4400   21.1300  -26.4800 H       1  LIG1        0.0618
     24 H          -0.2600   22.6600  -28.0200 H       1  LIG1        0.0632
     25 H          -3.8100   20.5600  -26.8900 H       1  LIG1        0.0632
     26 H          -4.3200   24.9800  -29.8400 H       1  LIG1        0.1551
     27 H          -5.8400   23.5000  -32.9100 H       1  LIG1        0.0651
     28 H          -7.3100   24.9400  -34.3000 H       1  LIG1        0.0831
     29 H          -5.0600   26.9100  -30.4300 H       1  LIG1        0.0671
     30 H          -7.4000   29.0100  -32.1800 H       1  LIG1        0.1562
     31 C          -5.0900   31.7500  -30.6800 C.3     1  LIG1       -0.0570
     32 H          -6.8900   30.8700  -30.1600 H       1  LIG1        0.0356
     33 H          -5.4600   32.7700  -30.5400 H       1  LIG1        0.0234
     34 H          -4.6100   31.4100  -29.7700 H       1  LIG1        0.0234
     35 H          -4.3600   31.7500  -31.4900 H       1  LIG1        0.0234
@<TRIPOS>BOND
     1    13    28    1
     2    13    14   ar
     3    12    13   ar
     4    14    15   ar
     5    12    27    1
     6    11    12   ar
     7    17    30    1
     8    15    17    1
     9    15    16   ar
    10    20    22    1
    11    17    18   am
    12     8     9    2
    13    11    16   ar
    14    10    11    1
    15    31    35    1
    16    16    29    1
    17    18    20    1
    18    18    19    2
    19    20    31    1
    20    20    32    1
    21     8    10   am
    22     4     8    1
    23    31    33    1
    24    31    34    1
    25    10    26    1
    26     3    21    1
    27     3     4   ar
    28     4     5   ar
    29     2     3   ar
    30     5     7    1
    31     5     6   ar
    32     2    24    1
    33     1     2   ar
    34     1     6   ar
    35     6    25    1
    36     1    23    1
