lig_56
  -OEChem-01312017313D

 47 49  0     0  0  0  0  0  0999 V2000
    3.8100  -50.0800    6.4300 O   0  5  0  0  0  0  0  0  0  0  0  0
    2.9400  -49.1700    6.5100 C   0  0  0  0  0  0  0  0  0  0  0  0
    3.2800  -47.9700    6.6700 O   0  0  0  0  0  0  0  0  0  0  0  0
    1.5200  -49.6100    6.4100 C   0  0  0  0  0  0  0  0  0  0  0  0
    1.0100  -51.1700    6.8300 N   0  0  0  0  0  0  0  0  0  0  0  0
    1.7400  -52.2800    7.3300 C   0  0  0  0  0  0  0  0  0  0  0  0
    2.7900  -52.0000    7.4300 H   0  0  0  0  0  0  0  0  0  0  0  0
    1.6600  -53.1200    6.6400 H   0  0  0  0  0  0  0  0  0  0  0  0
    1.3500  -52.5700    8.3000 H   0  0  0  0  0  0  0  0  0  0  0  0
   -0.6500  -51.0200    6.4700 C   0  0  0  0  0  0  0  0  0  0  0  0
   -1.7400  -51.8800    6.5500 C   0  0  0  0  0  0  0  0  0  0  0  0
   -1.5900  -52.9000    6.8900 H   0  0  0  0  0  0  0  0  0  0  0  0
   -3.0100  -51.4600    6.1900 C   0  0  0  0  0  0  0  0  0  0  0  0
   -3.8500  -52.1300    6.2600 H   0  0  0  0  0  0  0  0  0  0  0  0
   -3.1800  -50.1500    5.7300 C   0  0  0  0  0  0  0  0  0  0  0  0
   -4.1700  -49.8000    5.4500 H   0  0  0  0  0  0  0  0  0  0  0  0
   -2.1000  -49.2800    5.6300 C   0  0  0  0  0  0  0  0  0  0  0  0
   -2.2500  -48.2700    5.2600 H   0  0  0  0  0  0  0  0  0  0  0  0
   -0.8300  -49.7000    6.0100 C   0  0  0  0  0  0  0  0  0  0  0  0
    0.3700  -48.9100    5.9700 C   0  0  0  0  0  0  0  0  0  0  0  0
    0.4000  -47.4900    5.5200 C   0  0  0  0  0  0  0  0  0  0  0  0
    1.2700  -47.3600    4.8700 H   0  0  0  0  0  0  0  0  0  0  0  0
   -0.5100  -47.3000    4.9500 H   0  0  0  0  0  0  0  0  0  0  0  0
    0.4900  -46.4700    6.6100 C   0  0  0  0  0  0  0  0  0  0  0  0
    0.2700  -45.5000    6.1700 H   0  0  0  0  0  0  0  0  0  0  0  0
    1.5100  -46.4800    6.9900 H   0  0  0  0  0  0  0  0  0  0  0  0
   -0.4200  -46.6200    7.8000 C   0  0  0  0  0  0  0  0  0  0  0  0
   -0.0900  -45.9500    8.5900 H   0  0  0  0  0  0  0  0  0  0  0  0
   -0.3700  -47.6500    8.1600 H   0  0  0  0  0  0  0  0  0  0  0  0
   -1.7200  -46.3200    7.4600 O   0  0  0  0  0  0  0  0  0  0  0  0
   -2.7400  -46.3000    8.3700 C   0  0  0  0  0  0  0  0  0  0  0  0
   -2.6500  -47.0100    9.5500 C   0  0  0  0  0  0  0  0  0  0  0  0
   -1.7700  -47.6000    9.7700 H   0  0  0  0  0  0  0  0  0  0  0  0
   -3.7100  -46.9600   10.4500 C   0  0  0  0  0  0  0  0  0  0  0  0
   -3.6300  -47.6900   11.6700 C   0  0  0  0  0  0  0  0  0  0  0  0
   -2.6800  -48.2200   11.7200 H   0  0  0  0  0  0  0  0  0  0  0  0
   -4.4500  -48.4100   11.7200 H   0  0  0  0  0  0  0  0  0  0  0  0
   -3.7000  -47.0000   12.5100 H   0  0  0  0  0  0  0  0  0  0  0  0
   -4.8600  -46.2000   10.1800 C   0  0  0  0  0  0  0  0  0  0  0  0
   -6.1800  -46.1500   11.3300 Cl  0  0  0  0  0  0  0  0  0  0  0  0
   -4.9300  -45.4900    8.9900 C   0  0  0  0  0  0  0  0  0  0  0  0
   -6.0900  -44.7100    8.6900 C   0  0  0  0  0  0  0  0  0  0  0  0
   -6.8100  -44.8000    9.5100 H   0  0  0  0  0  0  0  0  0  0  0  0
   -6.5500  -45.0800    7.7700 H   0  0  0  0  0  0  0  0  0  0  0  0
   -5.8100  -43.6700    8.5700 H   0  0  0  0  0  0  0  0  0  0  0  0
   -3.8700  -45.5400    8.0900 C   0  0  0  0  0  0  0  0  0  0  0  0
   -3.9200  -44.9800    7.1700 H   0  0  0  0  0  0  0  0  0  0  0  0
 21 22  1  0  0  0  0
 21 23  1  0  0  0  0
 17 18  1  0  0  0  0
 15 16  1  0  0  0  0
 20 21  1  0  0  0  0
 21 24  1  0  0  0  0
 15 17  2  0  0  0  0
 17 19  1  0  0  0  0
 13 15  1  0  0  0  0
 19 20  1  0  0  0  0
  4 20  2  0  0  0  0
 10 19  2  0  0  0  0
 24 25  1  0  0  0  0
 13 14  1  0  0  0  0
 11 13  2  0  0  0  0
  2  4  1  0  0  0  0
  4  5  1  0  0  0  0
  1  2  1  0  0  0  0
 10 11  1  0  0  0  0
  5 10  1  0  0  0  0
  2  3  2  0  0  0  0
 11 12  1  0  0  0  0
 24 26  1  0  0  0  0
 24 27  1  0  0  0  0
  6  8  1  0  0  0  0
  5  6  1  0  0  0  0
 46 47  1  0  0  0  0
  6  7  1  0  0  0  0
  6  9  1  0  0  0  0
 27 30  1  0  0  0  0
 30 31  1  0  0  0  0
 42 44  1  0  0  0  0
 27 29  1  0  0  0  0
 27 28  1  0  0  0  0
 31 46  2  0  0  0  0
 41 46  1  0  0  0  0
 31 32  1  0  0  0  0
 42 45  1  0  0  0  0
 41 42  1  0  0  0  0
 42 43  1  0  0  0  0
 39 41  2  0  0  0  0
 32 33  1  0  0  0  0
 32 34  2  0  0  0  0
 34 39  1  0  0  0  0
 39 40  1  0  0  0  0
 34 35  1  0  0  0  0
 35 36  1  0  0  0  0
 35 37  1  0  0  0  0
 35 38  1  0  0  0  0
M  CHG  1   1  -1
M  END
$$$$
