# Molecule written by the XED library from Cresset
@<TRIPOS>MOLECULE
CatS_157
    92     96      1
SMALL
USER_CHARGES
@<TRIPOS>ATOM
      1  C5         -0.1343   16.2940   -5.9151 C.3       1 MOL1       -0.0443
      2  C6         -0.8232   16.4892   -7.2587 C.3       1 MOL1       -0.0762
      3  C7         -1.2900   15.1472   -7.8188 C.3       1 MOL1       -0.0619
      4  N1         -2.1668   14.4292   -6.8692 N.4       1 MOL1       -0.2282
      5  C8         -1.4720   14.2177   -5.5960 C.3       1 MOL1       -0.0619
      6  C9         -1.0460   15.5360   -4.9662 C.3       1 MOL1       -0.0762
      7  C10        -2.5802   13.1268   -7.4201 C.3       1 MOL1       -0.0328
      8  C11        -3.1242   13.0259   -8.8679 C.3       1 MOL1        0.0191
      9  C12        -3.2640   11.5090   -9.1209 C.3       1 MOL1        0.0979
     10  N2         -4.2419   10.5141   -8.6600 N.pl3     1 MOL1       -0.0670
     11  C13        -5.4820   10.2818   -9.1501 C.ar      1 MOL1        0.0572
     12  C14        -6.1812    9.4200   -8.4170 C.ar      1 MOL1       -0.0684
     13  C15        -5.3051    9.1152   -7.3480 C.ar      1 MOL1        0.0392
     14  N3         -4.1750    9.7759   -7.5249 N.2       1 MOL1       -0.2943
     15  C16        -5.5560    8.2630   -6.1939 C.ar      1 MOL1       -0.0066
     16  C17        -4.5301    7.4889   -5.6949 C.ar      1 MOL1       -0.0846
     17  C18        -4.7351    6.6810   -4.6049 C.ar      1 MOL1       -0.0687
     18  C19        -5.9571    6.5959   -3.9660 C.ar      1 MOL1        0.0171
     19  C20        -6.9944    7.3881   -4.4570 C.ar      1 MOL1        0.0480
     20  C21        -6.7801    8.1989   -5.5519 C.ar      1 MOL1       -0.0655
     21  S1         -8.6629    7.4821   -3.7700 S.3       1 MOL1       -0.1782
     22  C22        -9.3310    9.0540   -3.1618 C.3       1 MOL1       -0.0086
     23  C23        -8.2221   10.0751   -2.8261 C.3       1 MOL1       -0.0435
     24  N4         -8.5760   11.1032   -1.8209 N.4       1 MOL1       -0.2221
     25  C24        -9.9618   11.5500   -1.9600 C.3       1 MOL1       -0.0619
     26  C25       -10.3210   12.5460   -0.8610 C.3       1 MOL1       -0.0723
     27  C26        -9.3939   13.7532   -0.8589 C.3       1 MOL1       -0.0219
     28  C27        -7.9501   13.2839   -0.8650 C.3       1 MOL1        0.1911
     29  C28        -7.6879   12.2569   -1.9580 C.3       1 MOL1        0.0050
     30  F1         -7.6270   12.7482    0.3768 F         1 MOL1       -0.1800
     31  F2         -7.1229   14.3872   -1.0519 F         1 MOL1       -0.1800
     32  C29        -5.9110    5.6178   -2.7930 C.3       1 MOL1        0.4149
     33  F3         -7.0479    4.8450   -2.6560 F         1 MOL1       -0.1514
     34  F4         -5.7070    6.2890   -1.5909 F         1 MOL1       -0.1514
     35  F5         -4.8840    4.6870   -2.9152 F         1 MOL1       -0.1514
     36  C30        -7.6092    9.0309   -8.7911 C.3       1 MOL1        0.1169
     37  N5         -8.1021    9.5490  -10.0910 N.3       1 MOL1       -0.4606
     38  C31        -7.6020   10.9237  -10.2948 C.3       1 MOL1        0.0844
     39  C32        -6.0628   10.9440  -10.3819 C.3       1 MOL1       -0.0158
     40  S2         -9.6481    9.2100  -10.4699 S.3       1 MOL1        0.4316
     41  O1         -9.6798    9.4660  -11.8730 O.2       1 MOL1       -0.3139
     42  O2         -9.7609    7.8149  -10.1931 O.2       1 MOL1       -0.3139
     43  C33       -11.2729    9.8121   -9.9540 C.3       1 MOL1        0.0421
     44  O3         -4.3940   13.6859   -8.9949 O.3       1 MOL1       -0.4408
     45  H11        -0.0019   17.3952   -5.4591 C.3       1 MOL1       -0.1161
     46  H           0.8806   15.6794   -6.1104 C.3       1 MOL1       -0.1161
     47  H1         -2.3400   13.5120   -9.6370 H         1 MOL1        0.0680
     48  H12        -0.0230   16.9622   -8.0168 H         1 MOL1        0.0472
     49  H13        -1.7601   17.2320   -7.1891 H         1 MOL1        0.0472
     50  H14        -0.3071   14.5309   -8.1252 H         1 MOL1        0.0529
     51  H15        -1.9180   15.3601   -8.8181 H         1 MOL1        0.0529
     52  H16        -0.5078   13.5350   -5.8191 H         1 MOL1        0.0529
     53  H17        -2.1650   13.6380   -4.8071 H         1 MOL1        0.0529
     54  H18        -2.0183   16.1968   -4.7169 H         1 MOL1        0.0472
     55  H19        -0.5130   15.2529   -3.9300 H         1 MOL1        0.0472
     56  H20        -1.6790   12.3470   -7.2932 H         1 MOL1        0.0549
     57  H21        -3.4669   12.7579   -6.7000 H         1 MOL1        0.0549
     58  H22        -2.2440   11.0567   -8.6779 H         1 MOL1        0.0624
     59  H23        -3.2470   11.3532  -10.3111 H         1 MOL1        0.0624
     60  H24        -3.6278    7.5170   -6.1270 H         1 MOL1        0.0910
     61  H25        -3.9710    6.1360   -4.2648 H         1 MOL1        0.0908
     62  H26        -7.5341    8.7609   -5.8898 H         1 MOL1        0.0929
     63  H27       -10.0140    8.8492   -2.1951 H         1 MOL1        0.0553
     64  H28        -9.9372    9.5709   -4.0568 H         1 MOL1        0.0553
     65  H29        -7.2731    9.4748   -2.4010 H         1 MOL1        0.0548
     66  H30        -7.8926   10.5919   -3.8590 H         1 MOL1        0.0548
     67  H31       -10.7040   10.6139   -1.8572 H         1 MOL1        0.0530
     68  H32       -10.1000   12.0339   -3.0491 H         1 MOL1        0.0530
     69  H33       -10.2478   12.0271    0.2197 H         1 MOL1        0.0467
     70  H34       -11.4462   12.9321   -1.0200 H         1 MOL1        0.0467
     71  H35        -9.6093   14.4329   -1.8229 H         1 MOL1        0.0519
     72  H36        -9.5878   14.3972    0.1342 H         1 MOL1        0.0519
     73  H37        -6.5440   11.8981   -1.9201 H         1 MOL1        0.0586
     74  H38        -7.8700   12.7941   -3.0161 H         1 MOL1        0.0586
     75  H39        -8.3370    9.4322   -7.9289 H         1 MOL1        0.0628
     76  H40        -7.6839    7.8373   -8.8308 H         1 MOL1        0.0628
     77  H41        -7.9649   11.6280   -9.3961 H         1 MOL1        0.0601
     78  H42        -8.0210   11.3601  -11.3291 H         1 MOL1        0.0601
     79  H43        -5.6991   12.0840  -10.4540 H         1 MOL1        0.0516
     80  H44        -5.7071   10.3493  -11.3600 H         1 MOL1        0.0516
     81  H45       -11.4341    9.5610   -8.7921 H         1 MOL1        0.0588
     82  H46       -11.3348   10.9990  -10.1201 H         1 MOL1        0.0588
     83  H47       -12.1249    9.2699  -10.6010 H         1 MOL1        0.0588
     84  H48        -4.3180   14.6689   -8.7981 H         1 MOL1        0.3291
     85  H          -2.9091   14.9384   -6.7194 H         1 MOL1        0.1922
     86  H          -8.4740   10.7392   -0.9905 H         1 MOL1        0.1944
     87  H           0.6736   18.1256   -6.1362 H         1 MOL1        0.0438
     88  H           0.5223   17.3837   -4.3761 H         1 MOL1        0.0438
     89  H          -1.0248   18.0054   -5.2941 H         1 MOL1        0.0438
     90  H           1.6765   16.2920   -6.7733 H         1 MOL1        0.0438
     91  H           0.9040   14.6001   -6.6150 H         1 MOL1        0.0438
     92  H           1.4635   15.4864   -5.0758 H         1 MOL1        0.0438
@<TRIPOS>BOND
     1      1      2 1 
     2      1      6 1 
     3      1     45 1 
     4      1     46 1 
     5      2      3 1 
     6      3      4 1 
     7      4      5 1 
     8      4      7 1 
     9      5      6 1 
    10      7      8 1 
    11      8      9 1 
    12      8     44 1 
    13      9     10 1 
    14     10     11 ar
    15     10     14 ar
    16     11     12 ar
    17     11     39 1 
    18     12     13 ar
    19     12     36 1 
    20     13     14 ar
    21     13     15 1 
    22     15     16 ar
    23     15     20 ar
    24     16     17 ar
    25     17     18 ar
    26     18     19 ar
    27     18     32 1 
    28     19     20 ar
    29     19     21 1 
    30     21     22 1 
    31     22     23 1 
    32     23     24 1 
    33     24     25 1 
    34     24     29 1 
    35     25     26 1 
    36     26     27 1 
    37     27     28 1 
    38     28     29 1 
    39     28     30 1 
    40     28     31 1 
    41     32     33 1 
    42     32     34 1 
    43     32     35 1 
    44     36     37 1 
    45     37     38 1 
    46     37     40 1 
    47     38     39 1 
    48     40     41 2 
    49     40     42 2 
    50     40     43 1 
    51      2     48 1 
    52      2     49 1 
    53      3     50 1 
    54      3     51 1 
    55      5     52 1 
    56      5     53 1 
    57      6     54 1 
    58      6     55 1 
    59      7     56 1 
    60      7     57 1 
    61      8     47 1 
    62      9     58 1 
    63      9     59 1 
    64     16     60 1 
    65     17     61 1 
    66     20     62 1 
    67     22     63 1 
    68     22     64 1 
    69     23     65 1 
    70     23     66 1 
    71     25     67 1 
    72     25     68 1 
    73     26     69 1 
    74     26     70 1 
    75     27     71 1 
    76     27     72 1 
    77     29     73 1 
    78     29     74 1 
    79     36     75 1 
    80     36     76 1 
    81     38     77 1 
    82     38     78 1 
    83     39     79 1 
    84     39     80 1 
    85     43     81 1 
    86     43     82 1 
    87     43     83 1 
    88     44     84 1 
    89     85      4 1 
    90     86     24 1 
    91     87     45 1 
    92     88     45 1 
    93     89     45 1 
    94     90     46 1 
    95     91     46 1 
    96     92     46 1 
@<TRIPOS>SUBSTRUCTURE
     1 MOL1         1 MOLECULE          1 A
