lig_32_L
     RDKit          3D

 62 65  0  0  0  0  0  0  0  0999 V2000
   15.7960  -11.3020   17.4660 C   0  0  0  0  0  0  0  0  0  0  0  0
   16.3050  -12.6100   17.7360 O   0  0  0  0  0  0  0  0  0  0  0  0
   17.7170  -12.6300   17.5050 C   0  0  0  0  0  0  0  0  0  0  0  0
   15.9460  -10.8170   19.8010 O   0  0  0  0  0  0  0  0  0  0  0  0
    8.3330   -3.1610   15.8840 C   0  0  0  0  0  0  0  0  0  0  0  0
   17.3650  -10.9450   19.9260 C   0  0  0  0  0  0  0  0  0  0  0  0
   17.7350  -11.1100   21.4120 C   0  0  0  0  0  0  0  0  0  0  0  0
   19.2360  -11.4350   21.5340 C   0  0  0  0  0  0  0  0  0  0  0  0
   19.4180  -12.9480   21.7570 C   0  0  0  0  0  0  0  0  0  0  0  0
   14.3490   -6.1890   18.8260 O   0  0  0  0  0  0  0  0  0  0  0  0
   15.4290   -5.3490   16.9710 N   0  0  0  0  0  0  0  0  0  0  0  0
   15.4910  -10.9380   16.2090 C   0  0  0  0  0  0  0  0  0  0  0  0
   14.8550   -6.7880   15.3480 N   0  0  0  0  0  0  0  0  0  0  0  0
   14.9940   -9.6730   15.9150 C   0  0  0  0  0  0  0  0  0  0  0  0
   16.4320   -5.1830   14.8490 N   0  0  0  0  0  0  0  0  0  0  0  0
   14.7990   -8.7380   16.9380 C   0  0  0  0  0  0  0  0  0  0  0  0
    9.8820   -2.9390   14.0970 N   0  0  0  0  0  0  0  0  0  0  0  0
   15.1230   -9.1390   18.2420 C   0  0  0  0  0  0  0  0  0  0  0  0
   15.6180  -10.4230   18.4660 C   0  0  0  0  0  0  0  0  0  0  0  0
   14.2470   -7.3370   16.6190 C   0  0  1  0  0  0  0  0  0  0  0  0
   14.6650   -6.2530   17.6450 C   0  0  0  0  0  0  0  0  0  0  0  0
   15.5450   -5.7480   15.6900 C   0  0  0  0  0  0  0  0  0  0  0  0
   16.0040   -4.1780   17.5850 C   0  0  0  0  0  0  0  0  0  0  0  0
   12.7180   -7.3670   16.5030 C   0  0  0  0  0  0  0  0  0  0  0  0
   11.9360   -8.4980   16.7650 C   0  0  0  0  0  0  0  0  0  0  0  0
   10.5480   -8.4390   16.6340 C   0  0  0  0  0  0  0  0  0  0  0  0
    9.9140   -7.2600   16.2460 C   0  0  0  0  0  0  0  0  0  0  0  0
   10.6620   -6.1100   15.9770 C   0  0  0  0  0  0  0  0  0  0  0  0
   12.0570   -6.1860   16.1130 C   0  0  0  0  0  0  0  0  0  0  0  0
   10.0240   -4.8560   15.5740 C   0  0  0  0  0  0  0  0  0  0  0  0
   10.4490   -4.1010   14.4970 C   0  0  0  0  0  0  0  0  0  0  0  0
    8.8380   -2.5170   14.8220 C   0  0  0  0  0  0  0  0  0  0  0  0
    8.9370   -4.3070   16.2330 C   0  0  0  0  0  0  0  0  0  0  0  0
    8.5450   -4.8450   17.0960 H   0  0  0  0  0  0  0  0  0  0  0  0
   16.2120   -4.3830   18.6350 H   0  0  0  0  0  0  0  0  0  0  0  0
   15.6370  -11.6530   15.3990 H   0  0  0  0  0  0  0  0  0  0  0  0
   17.5190  -10.1860   21.9460 H   0  0  0  0  0  0  0  0  0  0  0  0
   14.7560   -9.4090   14.8850 H   0  0  0  0  0  0  0  0  0  0  0  0
   14.9890   -8.4500   19.0760 H   0  0  0  0  0  0  0  0  0  0  0  0
   17.8470  -10.0510   19.5290 H   0  0  0  0  0  0  0  0  0  0  0  0
    8.3670   -1.5800   14.5230 H   0  0  0  0  0  0  0  0  0  0  0  0
   18.0540  -11.6320   17.2290 H   0  0  0  0  0  0  0  0  0  0  0  0
    9.9510   -9.3280   16.8380 H   0  0  0  0  0  0  0  0  0  0  0  0
   12.4130   -9.4280   17.0730 H   0  0  0  0  0  0  0  0  0  0  0  0
    8.8280   -7.2340   16.1520 H   0  0  0  0  0  0  0  0  0  0  0  0
   12.6520   -5.2960   15.9090 H   0  0  0  0  0  0  0  0  0  0  0  0
   11.3030   -4.4680   13.9280 H   0  0  0  0  0  0  0  0  0  0  0  0
    7.4760   -2.7740   16.4360 H   0  0  0  0  0  0  0  0  0  0  0  0
   15.3040   -3.3460   17.5080 H   0  0  0  0  0  0  0  0  0  0  0  0
   17.9440  -13.3280   16.6990 H   0  0  0  0  0  0  0  0  0  0  0  0
   20.4200  -13.1420   22.1380 H   0  0  0  0  0  0  0  0  0  0  0  0
   17.7020  -11.8180   19.3690 H   0  0  0  0  0  0  0  0  0  0  0  0
   17.1520  -11.9240   21.8430 H   0  0  0  0  0  0  0  0  0  0  0  0
   16.9320   -3.9200   17.0750 H   0  0  0  0  0  0  0  0  0  0  0  0
   18.2280  -12.9480   18.4140 H   0  0  0  0  0  0  0  0  0  0  0  0
   19.6590  -10.8900   22.3780 H   0  0  0  0  0  0  0  0  0  0  0  0
   19.7470  -11.1400   20.6180 H   0  0  0  0  0  0  0  0  0  0  0  0
   19.2790  -13.4740   20.8130 H   0  0  0  0  0  0  0  0  0  0  0  0
   18.6810  -13.2990   22.4800 H   0  0  0  0  0  0  0  0  0  0  0  0
   16.5710   -5.5710   13.9270 H   0  0  0  0  0  0  0  0  0  0  0  0
   16.9580   -4.3720   15.1400 H   0  0  0  0  0  0  0  0  0  0  0  0
   14.8144   -7.0709   14.3793 H   0  0  0  0  0  0  0  0  0  0  0  0
  1  2  1  0
  1 12  2  0
  1 19  1  0
  2  3  1  0
  3 42  1  0
  3 50  1  0
  3 55  1  0
  4  6  1  0
  4 19  1  0
  5 32  2  0
  5 33  1  0
  5 48  1  0
  6  7  1  0
  6 40  1  0
  6 52  1  0
  7  8  1  0
  7 37  1  0
  7 53  1  0
  8  9  1  0
  8 56  1  0
  8 57  1  0
  9 51  1  0
  9 58  1  0
  9 59  1  0
 10 21  2  0
 11 21  1  0
 11 22  1  0
 11 23  1  0
 12 14  1  0
 12 36  1  0
 13 20  1  0
 13 22  2  0
 13 62  1  0
 14 16  2  0
 14 38  1  0
 15 22  1  0
 15 60  1  0
 15 61  1  0
 16 18  1  0
 20 16  1  1
 17 31  2  0
 17 32  1  0
 18 19  2  0
 18 39  1  0
 20 21  1  0
 20 24  1  0
 23 35  1  0
 23 49  1  0
 23 54  1  0
 24 25  2  0
 24 29  1  0
 25 26  1  0
 25 44  1  0
 26 27  2  0
 26 43  1  0
 27 28  1  0
 27 45  1  0
 28 29  2  0
 28 30  1  0
 29 46  1  0
 30 31  1  0
 30 33  2  0
 31 47  1  0
 32 41  1  0
 33 34  1  0
M  CHG  1  13   1
M  END
>  <s_m_entry_id>  (1) 
5

>  <s_m_entry_name>  (1) 
lig_32_L.1

>  <s_pdb_PDB_TITLE>  (1) 
MX MODEL

>  <i_pdb_PDB_Model>  (1) 
1

>  <s_pdb_PDB_format_version>  (1) 
3

>  <s_m_Source_Path>  (1) 
/projects/CNS/OGA/FEP_compare/PLBenchmarks/PLBenchmarks/data/2020-02-06_bace_p2/03_docked

>  <s_m_Source_File>  (1) 
lig_32_L.pdb

>  <i_m_Source_File_Index>  (1) 
1

$$$$
