lig_p38a_2bb
                    3D
 Structure written by MMmdl.
 44 46  0  0  1  0            999 V2000
   34.5500   34.9800   21.1800 C   0  0  0  0  0  0
   34.0400   38.9800   23.7400 C   0  0  0  0  0  0
   34.8000   37.8100   21.4400 C   0  0  0  0  0  0
   35.2500   37.1300   20.2300 C   0  0  0  0  0  0
   34.3100   37.0400   22.5100 C   0  0  0  0  0  0
   34.8500   39.2100   21.6200 C   0  0  0  0  0  0
   35.1700   35.7800   20.1300 C   0  0  0  0  0  0
   33.6700   34.8300   23.4600 C   0  0  0  0  0  0
   34.4800   39.7900   22.7800 N   0  0  0  0  0  0
   34.3300   33.7800   21.0200 O   0  0  0  0  0  0
   34.2100   35.6200   22.3400 N   0  0  0  0  0  0
   33.9300   37.6500   23.6600 N   0  0  0  0  0  0
   33.6700   39.5700   24.9300 N   0  0  0  0  0  0
   35.7000   37.7400   19.4700 H   0  0  0  0  0  0
   35.2200   39.8600   20.8400 H   0  0  0  0  0  0
   33.3200   35.4800   24.2700 H   0  0  0  0  0  0
   32.8300   34.2300   23.1200 H   0  0  0  0  0  0
   34.3900   34.1600   23.9300 H   0  0  0  0  0  0
   33.7900   40.5700   24.9700 H   0  0  0  0  0  0
   33.1200   38.7100   26.0600 C   0  0  0  0  0  0
   32.0900   38.9900   26.2600 H   0  0  0  0  0  0
   33.1700   37.6600   25.7800 H   0  0  0  0  0  0
   33.9700   38.9400   27.3300 C   0  0  0  0  0  0
   35.0000   38.6600   27.1300 H   0  0  0  0  0  0
   33.9200   39.9900   27.6100 H   0  0  0  0  0  0
   33.3200   37.9400   28.6600 S   0  0  0  0  0  0
   34.1600   38.1800   29.8600 O   0  0  0  0  0  0
   31.6600   38.4900   29.0100 C   0  0  0  0  0  0
   33.2600   36.5300   28.1900 O   0  0  0  0  0  0
   31.0300   38.3200   28.1400 H   0  0  0  0  0  0
   31.2600   37.9300   29.8600 H   0  0  0  0  0  0
   31.6700   39.5500   29.2500 H   0  0  0  0  0  0
   35.6600   35.1800   19.0100 O   0  0  0  0  0  0
   37.2600   38.0600   16.4500 C   0  0  0  0  0  0
   38.0700   37.4700   17.4400 C   0  0  0  0  0  0
   37.5300   36.5000   18.3000 C   0  0  0  0  0  0
   36.1900   36.1200   18.1700 C   0  0  0  0  0  0
   35.3800   36.7000   17.1800 C   0  0  0  0  0  0
   35.9200   37.6700   16.3200 C   0  0  0  0  0  0
   37.7700   38.9800   15.6300 F   0  0  0  0  0  0
   39.1200   37.7800   17.5500 H   0  0  0  0  0  0
   38.2900   35.9500   19.2500 F   0  0  0  0  0  0
   34.3200   36.4000   17.0800 H   0  0  0  0  0  0
   35.2800   38.1300   15.5400 H   0  0  0  0  0  0
  1  7  1  0  0  0
  1 10  2  0  0  0
  1 11  1  0  0  0
  2  9  1  0  0  0
  2 12  2  0  0  0
  2 13  1  0  0  0
  3  4  1  0  0  0
  3  5  2  0  0  0
  3  6  1  0  0  0
  4  7  2  0  0  0
  4 14  1  0  0  0
  5 11  1  0  0  0
  5 12  1  0  0  0
  6  9  2  0  0  0
  6 15  1  0  0  0
  7 33  1  0  0  0
  8 11  1  0  0  0
  8 16  1  0  0  0
  8 17  1  0  0  0
  8 18  1  0  0  0
 13 19  1  0  0  0
 13 20  1  0  0  0
 20 21  1  0  0  0
 20 22  1  0  0  0
 20 23  1  0  0  0
 23 24  1  0  0  0
 23 25  1  0  0  0
 23 26  1  0  0  0
 26 27  2  0  0  0
 26 28  1  0  0  0
 26 29  2  0  0  0
 28 30  1  0  0  0
 28 31  1  0  0  0
 28 32  1  0  0  0
 33 37  1  0  0  0
 34 35  1  0  0  0
 34 39  2  0  0  0
 34 40  1  0  0  0
 35 36  2  0  0  0
 35 41  1  0  0  0
 36 37  1  0  0  0
 36 42  1  0  0  0
 37 38  2  0  0  0
 38 39  1  0  0  0
 38 43  1  0  0  0
 39 44  1  0  0  0
M  END
> <s_m_entry_id>
2

> <s_m_entry_name>
lig_p38a_2bb.1

> <s_pdb_PDB_TITLE>
MX MODEL

> <i_pdb_PDB_Model>
1

> <r_pdb_PDB_CRYST1_a>
161.9

> <r_pdb_PDB_CRYST1_b>
135.86

> <r_pdb_PDB_CRYST1_c>
286.5

> <r_pdb_PDB_CRYST1_alpha>
90

> <r_pdb_PDB_CRYST1_beta>
90

> <r_pdb_PDB_CRYST1_gamma>
90

> <s_pdb_PDB_CRYST1_Space_Group>
P 1

> <i_pdb_PDB_CRYST1_z>
1

> <s_pdb_PDB_format_version>
3.0

> <s_m_Source_Path>
/users/home/dhahn3/projects/PLBenchmarks/PLBenchmarks/data/2019-12-09_p38/03_docked

> <s_m_Source_File>
lig_p38a_2bb.pdb

> <i_m_Source_File_Index>
1

$$$$
