@<TRIPOS>MOLECULE
lig_CHEMBL3402761_1_21
 64 68 0 0 0
SMALL
GASTEIGER

@<TRIPOS>ATOM
      1 O          20.6300   29.5300   59.9400 O.2     1  LIG1       -0.2662
      2 C          20.1800   29.3700   58.8000 C.ar    1  LIG1        0.2676
      3 C          19.8500   28.0500   58.2900 C.ar    1  LIG1        0.0064
      4 C          19.3800   27.8500   57.0400 C.ar    1  LIG1       -0.0289
      5 C          19.1800   28.9500   56.1200 C.ar    1  LIG1        0.0916
      6 N          19.4500   30.1400   56.5700 N.ar    1  LIG1       -0.1679
      7 N          19.9300   30.3500   57.8700 N.ar    1  LIG1       -0.2245
      8 C          20.2300   31.7500   58.2200 C.3     1  LIG1        0.0703
      9 C          21.6300   32.2200   57.8300 C.ar    1  LIG1       -0.0253
     10 C          22.6600   32.2300   58.7800 C.ar    1  LIG1       -0.0568
     11 C          23.9300   32.7000   58.4300 C.ar    1  LIG1       -0.0608
     12 C          24.1800   33.1300   57.1300 C.ar    1  LIG1       -0.0510
     13 C          23.1800   33.1200   56.1500 C.ar    1  LIG1        0.0194
     14 C          21.9000   32.6800   56.5300 C.ar    1  LIG1       -0.0461
     15 C          23.4900   33.4900   54.7200 C.ar    1  LIG1        0.1599
     16 N          24.7700   33.7900   54.3800 N.ar    1  LIG1       -0.2320
     17 C          25.0500   33.9300   53.0500 C.ar    1  LIG1        0.0731
     18 C          24.0800   33.7500   52.0500 C.ar    1  LIG1        0.1568
     19 O          24.4600   33.8000   50.7200 O.3     1  LIG1       -0.4837
     20 C          23.5200   33.5700   49.6700 C.3     1  LIG1        0.1293
     21 C          22.8200   32.1800   49.7100 C.3     1  LIG1        0.0033
     22 N          23.1400   31.3200   48.5600 N.4     1  LIG1        0.2409
     23 C          22.2200   30.1800   48.5100 C.3     1  LIG1       -0.0077
     24 C          22.5700   29.2500   47.3200 C.3     1  LIG1        0.0878
     25 O          23.9300   28.8300   47.3900 O.3     1  LIG1       -0.3693
     26 C          24.8500   29.9100   47.4500 C.3     1  LIG1        0.0878
     27 C          24.5300   30.8500   48.6300 C.3     1  LIG1       -0.0077
     28 C          22.7800   33.5200   52.5200 C.ar    1  LIG1        0.0731
     29 N          22.4700   33.3800   53.8300 N.ar    1  LIG1       -0.2320
     30 C          18.7000   28.7100   54.7400 C.ar    1  LIG1        0.0033
     31 C          18.9900   29.6600   53.7300 C.ar    1  LIG1       -0.0524
     32 C          18.5800   29.4500   52.4200 C.ar    1  LIG1       -0.0599
     33 C          17.8700   28.3000   52.0800 C.ar    1  LIG1       -0.0443
     34 C          17.5800   27.3500   53.0500 C.ar    1  LIG1        0.0524
     35 C          18.0000   27.5500   54.3700 C.ar    1  LIG1       -0.0351
     36 C          16.8400   26.1500   52.6800 C.1     1  LIG1        0.0992
     37 N          16.2500   25.2000   52.3700 N.1     1  LIG1       -0.1909
     38 H          20.0100   27.2000   58.9400 H       1  LIG1        0.0673
     39 H          19.1800   26.8300   56.7500 H       1  LIG1        0.0641
     40 H          20.0600   31.9400   59.2800 H       1  LIG1        0.0560
     41 H          19.5000   32.4000   57.7300 H       1  LIG1        0.0560
     42 H          22.4700   31.9000   59.7800 H       1  LIG1        0.0621
     43 H          24.7200   32.7100   59.1700 H       1  LIG1        0.0618
     44 H          25.1800   33.4600   56.8900 H       1  LIG1        0.0625
     45 H          21.0900   32.6500   55.8100 H       1  LIG1        0.0628
     46 H          26.0700   34.1300   52.7700 H       1  LIG1        0.0868
     47 H          24.0600   33.6900   48.7300 H       1  LIG1        0.0751
     48 H          22.7700   34.3500   49.6300 H       1  LIG1        0.0751
     49 H          21.7500   32.3500   49.7400 H       1  LIG1        0.0848
     50 H          23.0700   31.6400   50.6300 H       1  LIG1        0.0848
     51 H          22.2400   29.6100   49.4400 H       1  LIG1        0.0837
     52 H          21.1900   30.5400   48.3900 H       1  LIG1        0.0837
     53 H          21.9300   28.3600   47.3400 H       1  LIG1        0.0613
     54 H          22.3800   29.7400   46.3700 H       1  LIG1        0.0613
     55 H          25.8500   29.5000   47.5700 H       1  LIG1        0.0613
     56 H          24.8500   30.4600   46.5100 H       1  LIG1        0.0613
     57 H          24.7100   30.3400   49.5800 H       1  LIG1        0.0837
     58 H          25.2200   31.7000   48.6100 H       1  LIG1        0.0837
     59 H          21.9400   33.3900   51.8500 H       1  LIG1        0.0868
     60 H          19.5500   30.5500   53.9700 H       1  LIG1        0.0624
     61 H          18.8200   30.1800   51.6600 H       1  LIG1        0.0618
     62 H          17.5700   28.1600   51.0500 H       1  LIG1        0.0630
     63 H          17.7600   26.8000   55.1100 H       1  LIG1        0.0637
     64 H          23.0281   31.8557   47.7231 H       1  LIG1        0.2036
@<TRIPOS>BOND
     1    24    54    1
     2    26    56    1
     3    24    53    1
     4    24    25    1
     5    23    24    1
     6    25    26    1
     7    26    55    1
     8    26    27    1
     9    23    52    1
    10    22    23    1
    11    23    51    1
    12    22    27    1
    13    21    22    1
    14    27    58    1
    15    27    57    1
    16    20    47    1
    17    20    48    1
    18    20    21    1
    19    19    20    1
    20    21    49    1
    21    21    50    1
    22    18    19    1
    23    33    62    1
    24    32    61    1
    25    28    59    1
    26    18    28   ar
    27    17    18   ar
    28    32    33   ar
    29    33    34   ar
    30    36    37    3
    31    31    32   ar
    32    28    29   ar
    33    34    36    1
    34    17    46    1
    35    16    17   ar
    36    34    35   ar
    37    31    60    1
    38    30    31   ar
    39    15    29   ar
    40    30    35   ar
    41    35    63    1
    42    15    16   ar
    43    13    15    1
    44     5    30    1
    45    14    45    1
    46     5     6   ar
    47     4     5   ar
    48    13    14   ar
    49    12    13   ar
    50     9    14   ar
    51     6     7   ar
    52     4    39    1
    53    12    44    1
    54     3     4   ar
    55    11    12   ar
    56     8    41    1
    57     8     9    1
    58     9    10   ar
    59     7     8    1
    60     2     7   ar
    61     8    40    1
    62     2     3   ar
    63     3    38    1
    64    10    11   ar
    65    11    43    1
    66    10    42    1
    67     1     2    2
    68    22    64    1
