lig_CHEMBL3402754_40_14
  -OEChem-01272013113D

 45 48  0     0  0  0  0  0  0999 V2000
   24.6600   34.1800   50.5900 C   0  0  0  0  0  0  0  0  0  0  0  0
   24.2800   33.9300   52.0400 C   0  0  0  0  0  0  0  0  0  0  0  0
   25.1700   34.1500   53.0800 C   0  0  0  0  0  0  0  0  0  0  0  0
   24.8500   33.9300   54.3800 N   0  0  0  0  0  0  0  0  0  0  0  0
   23.5900   33.4700   54.6400 C   0  0  0  0  0  0  0  0  0  0  0  0
   22.6500   33.2400   53.6900 N   0  0  0  0  0  0  0  0  0  0  0  0
   23.0100   33.4700   52.4000 C   0  0  0  0  0  0  0  0  0  0  0  0
   23.2500   33.1200   56.0700 C   0  0  0  0  0  0  0  0  0  0  0  0
   24.2500   33.1100   57.0600 C   0  0  0  0  0  0  0  0  0  0  0  0
   23.9700   32.7000   58.3600 C   0  0  0  0  0  0  0  0  0  0  0  0
   22.6900   32.2700   58.7000 C   0  0  0  0  0  0  0  0  0  0  0  0
   21.6700   32.2900   57.7500 C   0  0  0  0  0  0  0  0  0  0  0  0
   20.2600   31.8700   58.1500 C   0  0  0  0  0  0  0  0  0  0  0  0
   19.9300   30.4700   57.8100 N   0  0  0  0  0  0  0  0  0  0  0  0
   19.4000   30.2600   56.5400 N   0  0  0  0  0  0  0  0  0  0  0  0
   19.0700   29.0800   56.1000 C   0  0  0  0  0  0  0  0  0  0  0  0
   19.3300   27.9700   57.0100 C   0  0  0  0  0  0  0  0  0  0  0  0
   19.8500   28.1700   58.2400 C   0  0  0  0  0  0  0  0  0  0  0  0
   20.1900   29.4900   58.7400 C   0  0  0  0  0  0  0  0  0  0  0  0
   20.6500   29.6500   59.8800 O   0  0  0  0  0  0  0  0  0  0  0  0
   18.4700   28.8700   54.7500 C   0  0  0  0  0  0  0  0  0  0  0  0
   18.0400   27.6100   54.3100 C   0  0  0  0  0  0  0  0  0  0  0  0
   17.4500   27.4600   53.0500 C   0  0  0  0  0  0  0  0  0  0  0  0
   17.0200   26.2500   52.6500 F   0  0  0  0  0  0  0  0  0  0  0  0
   17.3000   28.5600   52.2100 C   0  0  0  0  0  0  0  0  0  0  0  0
   17.7300   29.8200   52.6300 C   0  0  0  0  0  0  0  0  0  0  0  0
   17.5800   30.8900   51.8200 F   0  0  0  0  0  0  0  0  0  0  0  0
   18.3200   29.9700   53.8900 C   0  0  0  0  0  0  0  0  0  0  0  0
   21.9600   32.7300   56.4500 C   0  0  0  0  0  0  0  0  0  0  0  0
   24.1200   33.5100   49.9200 H   0  0  0  0  0  0  0  0  0  0  0  0
   25.7300   34.0100   50.4400 H   0  0  0  0  0  0  0  0  0  0  0  0
   24.4300   35.2100   50.3100 H   0  0  0  0  0  0  0  0  0  0  0  0
   26.1800   34.5000   52.8800 H   0  0  0  0  0  0  0  0  0  0  0  0
   22.2500   33.2800   51.6400 H   0  0  0  0  0  0  0  0  0  0  0  0
   25.2600   33.4000   56.8200 H   0  0  0  0  0  0  0  0  0  0  0  0
   24.7600   32.6900   59.1000 H   0  0  0  0  0  0  0  0  0  0  0  0
   22.4900   31.9300   59.7100 H   0  0  0  0  0  0  0  0  0  0  0  0
   20.1000   32.0700   59.2100 H   0  0  0  0  0  0  0  0  0  0  0  0
   19.5400   32.5300   57.6500 H   0  0  0  0  0  0  0  0  0  0  0  0
   19.1200   26.9500   56.7300 H   0  0  0  0  0  0  0  0  0  0  0  0
   20.0400   27.3200   58.8800 H   0  0  0  0  0  0  0  0  0  0  0  0
   18.1200   26.7300   54.9100 H   0  0  0  0  0  0  0  0  0  0  0  0
   16.8400   28.4400   51.2400 H   0  0  0  0  0  0  0  0  0  0  0  0
   18.6400   30.9600   54.1700 H   0  0  0  0  0  0  0  0  0  0  0  0
   21.1600   32.7300   55.7200 H   0  0  0  0  0  0  0  0  0  0  0  0
  1 30  1  0  0  0  0
  1 32  1  0  0  0  0
  1 31  1  0  0  0  0
  1  2  1  0  0  0  0
 25 43  1  0  0  0  0
  7 34  1  0  0  0  0
 26 27  1  0  0  0  0
  2  7  2  0  0  0  0
  2  3  1  0  0  0  0
 25 26  2  0  0  0  0
 23 25  1  0  0  0  0
  6  7  1  0  0  0  0
 26 28  1  0  0  0  0
 23 24  1  0  0  0  0
  3 33  1  0  0  0  0
 22 23  2  0  0  0  0
  3  4  2  0  0  0  0
  5  6  2  0  0  0  0
 28 44  1  0  0  0  0
 21 28  2  0  0  0  0
 21 22  1  0  0  0  0
 22 42  1  0  0  0  0
  4  5  1  0  0  0  0
  5  8  1  0  0  0  0
 16 21  1  0  0  0  0
 29 45  1  0  0  0  0
  8 29  2  0  0  0  0
  8  9  1  0  0  0  0
 15 16  2  0  0  0  0
 16 17  1  0  0  0  0
 12 29  1  0  0  0  0
 14 15  1  0  0  0  0
 17 40  1  0  0  0  0
  9 35  1  0  0  0  0
 17 18  2  0  0  0  0
  9 10  2  0  0  0  0
 13 39  1  0  0  0  0
 12 13  1  0  0  0  0
 11 12  2  0  0  0  0
 13 14  1  0  0  0  0
 14 19  1  0  0  0  0
 13 38  1  0  0  0  0
 18 19  1  0  0  0  0
 18 41  1  0  0  0  0
 10 11  1  0  0  0  0
 10 36  1  0  0  0  0
 11 37  1  0  0  0  0
 19 20  2  0  0  0  0
M  END
$$$$
