@<TRIPOS>MOLECULE
lig_CHEMBL3402747_3400_7
 42 45 0 0 0
SMALL
GASTEIGER

@<TRIPOS>ATOM
      1 C          25.5400   34.0200   52.0100 C.3     1  LIG1       -0.0012
      2 C          24.4500   33.7000   53.0000 C.ar    1  LIG1        0.1691
      3 N          23.2300   33.4400   52.6000 N.ar    1  LIG1       -0.0612
      4 O          22.5700   33.1700   53.8000 O.2     1  LIG1       -0.3328
      5 C          23.5100   33.3100   54.7600 C.ar    1  LIG1        0.2585
      6 N          24.6800   33.6600   54.3000 N.ar    1  LIG1       -0.1921
      7 C          23.1500   32.9700   56.1700 C.ar    1  LIG1        0.0397
      8 C          24.1300   32.9700   57.1700 C.ar    1  LIG1       -0.0494
      9 C          23.8300   32.5700   58.4600 C.ar    1  LIG1       -0.0607
     10 C          22.5300   32.1600   58.7800 C.ar    1  LIG1       -0.0568
     11 C          21.5400   32.1500   57.8000 C.ar    1  LIG1       -0.0253
     12 C          20.1200   31.7000   58.1500 C.3     1  LIG1        0.0703
     13 N          19.8600   30.2900   57.8300 N.ar    1  LIG1       -0.2245
     14 N          19.3900   30.0400   56.5300 N.ar    1  LIG1       -0.1679
     15 C          19.1400   28.8400   56.1000 C.ar    1  LIG1        0.0918
     16 C          19.3800   27.7500   57.0400 C.ar    1  LIG1       -0.0289
     17 C          19.8500   27.9900   58.2900 C.ar    1  LIG1        0.0064
     18 C          20.1300   29.3200   58.7800 C.ar    1  LIG1        0.2676
     19 O          20.5600   29.5300   59.9200 O.2     1  LIG1       -0.2662
     20 C          18.6500   28.5400   54.7400 C.ar    1  LIG1        0.0075
     21 C          19.0000   29.3800   53.6700 C.ar    1  LIG1       -0.0170
     22 C          18.5700   29.1000   52.3800 C.ar    1  LIG1        0.1267
     23 F          18.9200   29.9200   51.3600 F       1  LIG1       -0.2054
     24 C          17.7700   27.9900   52.1300 C.ar    1  LIG1        0.0088
     25 C          17.4200   27.1400   53.1800 C.ar    1  LIG1        0.1267
     26 F          16.6500   26.0600   52.9400 F       1  LIG1       -0.2054
     27 C          17.8500   27.4200   54.4700 C.ar    1  LIG1       -0.0170
     28 C          21.8400   32.5800   56.5100 C.ar    1  LIG1       -0.0445
     29 H          25.3000   34.9100   51.4400 H       1  LIG1        0.0309
     30 H          25.6700   33.2100   51.2900 H       1  LIG1        0.0309
     31 H          26.5100   34.1800   52.4800 H       1  LIG1        0.0309
     32 H          25.1500   33.2700   56.9400 H       1  LIG1        0.0625
     33 H          24.6000   32.5700   59.2200 H       1  LIG1        0.0618
     34 H          22.3100   31.8500   59.7900 H       1  LIG1        0.0621
     35 H          19.9200   31.9200   59.2100 H       1  LIG1        0.0560
     36 H          19.4000   32.3300   57.6200 H       1  LIG1        0.0560
     37 H          19.2100   26.7300   56.7600 H       1  LIG1        0.0641
     38 H          20.0400   27.1600   58.9500 H       1  LIG1        0.0673
     39 H          19.6200   30.2500   53.8300 H       1  LIG1        0.0653
     40 H          17.4500   27.7700   51.1300 H       1  LIG1        0.0675
     41 H          17.5600   26.7300   55.2600 H       1  LIG1        0.0653
     42 H          21.0700   32.5600   55.7500 H       1  LIG1        0.0628
@<TRIPOS>BOND
     1    24    40    1
     2     1    30    1
     3    22    23    1
     4     1    29    1
     5     1    31    1
     6     1     2    1
     7    22    24   ar
     8    24    25   ar
     9    21    22   ar
    10     2     3   ar
    11     3     4   ar
    12    25    26    1
    13     2     6   ar
    14    25    27   ar
    15    21    39    1
    16    20    21   ar
    17     4     5   ar
    18     5     6   ar
    19    20    27   ar
    20    27    41    1
    21    15    20    1
    22     5     7    1
    23    28    42    1
    24    14    15   ar
    25    15    16   ar
    26     7    28   ar
    27     7     8   ar
    28    11    28   ar
    29    13    14   ar
    30    16    37    1
    31     8    32    1
    32    16    17   ar
    33     8     9   ar
    34    12    36    1
    35    11    12    1
    36    10    11   ar
    37    12    13    1
    38    13    18   ar
    39    12    35    1
    40    17    18   ar
    41    17    38    1
    42     9    10   ar
    43     9    33    1
    44    10    34    1
    45    18    19    2
