@<TRIPOS>MOLECULE
lig_CHEMBL3402745_200_5
 45 47 0 0 0
SMALL
GASTEIGER

@<TRIPOS>ATOM
      1 C          25.0500   33.1200   50.3700 C.3     1  LIG1       -0.0305
      2 C          25.2400   33.9600   51.6300 C.3     1  LIG1        0.0913
      3 O          24.2400   33.5900   52.5800 O.3     1  LIG1       -0.4504
      4 C          24.4300   33.8100   53.9000 C.2     1  LIG1        0.4045
      5 O          25.4400   34.3300   54.3800 O.2     1  LIG1       -0.2261
      6 N          23.3100   33.3500   54.5800 N.am    1  LIG1       -0.2512
      7 C          23.1400   33.1000   55.9500 C.ar    1  LIG1        0.0368
      8 C          24.1900   33.1200   56.8900 C.ar    1  LIG1       -0.0404
      9 C          23.9700   32.7300   58.2100 C.ar    1  LIG1       -0.0597
     10 C          22.7000   32.3200   58.6100 C.ar    1  LIG1       -0.0567
     11 C          21.6400   32.3000   57.6900 C.ar    1  LIG1       -0.0243
     12 C          20.2500   31.8600   58.1400 C.3     1  LIG1        0.0703
     13 N          19.9400   30.4500   57.8200 N.ar    1  LIG1       -0.2245
     14 N          19.4500   30.2100   56.5400 N.ar    1  LIG1       -0.1679
     15 C          19.1600   29.0200   56.1200 C.ar    1  LIG1        0.0918
     16 C          19.4200   27.9300   57.0600 C.ar    1  LIG1       -0.0289
     17 C          19.9100   28.1600   58.3000 C.ar    1  LIG1        0.0064
     18 C          20.2200   29.4900   58.7800 C.ar    1  LIG1        0.2676
     19 O          20.6500   29.6900   59.9200 O.2     1  LIG1       -0.2662
     20 C          18.6000   28.7500   54.7800 C.ar    1  LIG1        0.0075
     21 C          18.6600   29.7400   53.7700 C.ar    1  LIG1       -0.0170
     22 C          18.1300   29.5100   52.5100 C.ar    1  LIG1        0.1267
     23 F          18.1800   30.4800   51.5700 F       1  LIG1       -0.2054
     24 C          17.5300   28.2900   52.2100 C.ar    1  LIG1        0.0088
     25 C          17.4600   27.3000   53.1800 C.ar    1  LIG1        0.1267
     26 F          16.8700   26.1100   52.9000 F       1  LIG1       -0.2054
     27 C          17.9900   27.5200   54.4500 C.ar    1  LIG1       -0.0170
     28 C          21.8700   32.7100   56.3700 C.ar    1  LIG1       -0.0354
     29 H          25.8000   33.3800   49.6200 H       1  LIG1        0.0262
     30 H          24.0700   33.2900   49.9200 H       1  LIG1        0.0262
     31 H          25.1500   32.0500   50.5800 H       1  LIG1        0.0262
     32 H          26.2400   33.8000   52.0300 H       1  LIG1        0.0695
     33 H          25.1400   35.0200   51.4100 H       1  LIG1        0.0695
     34 H          22.5300   33.1000   53.9900 H       1  LIG1        0.1582
     35 H          25.2000   33.4100   56.6100 H       1  LIG1        0.0636
     36 H          24.7800   32.7400   58.9100 H       1  LIG1        0.0618
     37 H          22.5400   31.9900   59.6300 H       1  LIG1        0.0621
     38 H          20.1200   32.0800   59.2000 H       1  LIG1        0.0560
     39 H          19.5100   32.5000   57.6500 H       1  LIG1        0.0560
     40 H          19.2500   26.9000   56.7800 H       1  LIG1        0.0641
     41 H          20.1100   27.3300   58.9600 H       1  LIG1        0.0673
     42 H          19.1300   30.6900   53.9700 H       1  LIG1        0.0653
     43 H          17.1300   28.1100   51.2200 H       1  LIG1        0.0675
     44 H          17.8900   26.7300   55.1700 H       1  LIG1        0.0653
     45 H          21.0500   32.6800   55.6700 H       1  LIG1        0.0639
@<TRIPOS>BOND
     1     1    29    1
     2     1    30    1
     3     1    31    1
     4     1     2    1
     5    24    43    1
     6     2    33    1
     7    22    23    1
     8     2    32    1
     9     2     3    1
    10    22    24   ar
    11    24    25   ar
    12    21    22   ar
    13     3     4    1
    14    25    26    1
    15    25    27   ar
    16    21    42    1
    17    20    21   ar
    18     4     5    2
    19     4     6   am
    20     6    34    1
    21    20    27   ar
    22    27    44    1
    23     6     7    1
    24    15    20    1
    25    28    45    1
    26     7    28   ar
    27     7     8   ar
    28    14    15   ar
    29    15    16   ar
    30    11    28   ar
    31    13    14   ar
    32     8    35    1
    33    16    40    1
    34     8     9   ar
    35    16    17   ar
    36    12    39    1
    37    11    12    1
    38    10    11   ar
    39    12    13    1
    40    13    18   ar
    41    12    38    1
    42     9    10   ar
    43     9    36    1
    44    17    18   ar
    45    17    41    1
    46    10    37    1
    47    18    19    2
