@<TRIPOS>MOLECULE
lig_CHEMBL3402749_500_9
 43 46 0 0 0
SMALL
GASTEIGER

@<TRIPOS>ATOM
      1 C          23.1900   32.9700   51.3200 C.3     1  LIG1       -0.0048
      2 C          23.7300   33.2900   52.6900 C.ar    1  LIG1        0.1226
      3 O          23.0100   32.9100   53.7700 O.2     1  LIG1       -0.4405
      4 C          23.7500   33.3200   54.8300 C.ar    1  LIG1        0.2274
      5 N          24.8700   33.9300   54.4900 N.ar    1  LIG1       -0.2172
      6 C          24.8600   33.9300   53.1700 C.ar    1  LIG1        0.0692
      7 C          23.2900   32.9600   56.2000 C.ar    1  LIG1        0.0372
      8 C          24.2100   32.9700   57.2600 C.ar    1  LIG1       -0.0495
      9 C          23.8200   32.5800   58.5400 C.ar    1  LIG1       -0.0607
     10 C          22.5200   32.1700   58.7800 C.ar    1  LIG1       -0.0568
     11 C          21.5800   32.1400   57.7400 C.ar    1  LIG1       -0.0253
     12 C          20.1400   31.7100   58.0200 C.3     1  LIG1        0.0703
     13 N          19.8700   30.2900   57.7100 N.ar    1  LIG1       -0.2245
     14 N          19.4100   30.0300   56.4100 N.ar    1  LIG1       -0.1679
     15 C          19.1400   28.8300   56.0100 C.ar    1  LIG1        0.0918
     16 C          19.3700   27.7600   56.9600 C.ar    1  LIG1       -0.0289
     17 C          19.8500   28.0000   58.2000 C.ar    1  LIG1        0.0064
     18 C          20.1400   29.3400   58.6700 C.ar    1  LIG1        0.2676
     19 O          20.5700   29.5500   59.8100 O.2     1  LIG1       -0.2662
     20 C          18.6400   28.5300   54.6500 C.ar    1  LIG1        0.0075
     21 C          17.8500   27.4000   54.3900 C.ar    1  LIG1       -0.0170
     22 C          17.4000   27.1200   53.1000 C.ar    1  LIG1        0.1267
     23 F          16.6400   26.0300   52.8700 F       1  LIG1       -0.2054
     24 C          17.7400   27.9700   52.0400 C.ar    1  LIG1        0.0088
     25 C          18.5200   29.1000   52.2800 C.ar    1  LIG1        0.1267
     26 F          18.8400   29.9300   51.2600 F       1  LIG1       -0.2054
     27 C          18.9700   29.3800   53.5700 C.ar    1  LIG1       -0.0170
     28 C          21.9700   32.5500   56.4500 C.ar    1  LIG1       -0.0446
     29 H          23.0000   31.9000   51.2100 H       1  LIG1        0.0308
     30 H          23.8800   33.2600   50.5300 H       1  LIG1        0.0308
     31 H          22.2500   33.4800   51.1400 H       1  LIG1        0.0308
     32 H          25.6600   34.3500   52.5800 H       1  LIG1        0.0865
     33 H          25.2300   33.2800   57.0900 H       1  LIG1        0.0625
     34 H          24.5400   32.6000   59.3400 H       1  LIG1        0.0618
     35 H          22.2300   31.8500   59.7700 H       1  LIG1        0.0621
     36 H          19.8900   31.9400   59.0500 H       1  LIG1        0.0560
     37 H          19.4700   32.3400   57.4400 H       1  LIG1        0.0560
     38 H          19.1900   26.7300   56.6900 H       1  LIG1        0.0641
     39 H          20.0300   27.1800   58.8700 H       1  LIG1        0.0673
     40 H          17.5600   26.7300   55.1800 H       1  LIG1        0.0653
     41 H          17.4000   27.7500   51.0400 H       1  LIG1        0.0675
     42 H          19.5800   30.2600   53.7300 H       1  LIG1        0.0653
     43 H          21.2500   32.5300   55.6500 H       1  LIG1        0.0628
@<TRIPOS>BOND
     1     1    30    1
     2    24    41    1
     3     1    31    1
     4     1    29    1
     5    25    26    1
     6     1     2    1
     7    24    25   ar
     8    22    24   ar
     9    25    27   ar
    10     6    32    1
    11     2     6   ar
    12     2     3   ar
    13    22    23    1
    14    21    22   ar
    15     5     6   ar
    16    27    42    1
    17    20    27   ar
    18     3     4   ar
    19    20    21   ar
    20    21    40    1
    21     4     5   ar
    22    15    20    1
    23     4     7    1
    24    28    43    1
    25    14    15   ar
    26    15    16   ar
    27     7    28   ar
    28     7     8   ar
    29    13    14   ar
    30    11    28   ar
    31    16    38    1
    32    16    17   ar
    33     8    33    1
    34     8     9   ar
    35    12    37    1
    36    12    13    1
    37    13    18   ar
    38    11    12    1
    39    10    11   ar
    40    12    36    1
    41    17    18   ar
    42    17    39    1
    43     9    10   ar
    44     9    34    1
    45    18    19    2
    46    10    35    1
