@<TRIPOS>MOLECULE
lig_CHEMBL3402744_300_4
 42 44 0 0 0
SMALL
GASTEIGER

@<TRIPOS>ATOM
      1 C          25.1200   34.0900   51.5900 C.3     1  LIG1        0.0833
      2 O          24.1300   33.7400   52.5500 O.3     1  LIG1       -0.4535
      3 C          24.3800   33.8600   53.8700 C.2     1  LIG1        0.4043
      4 O          25.4200   34.3300   54.3400 O.2     1  LIG1       -0.2261
      5 N          23.2900   33.3700   54.5600 N.am    1  LIG1       -0.2512
      6 C          23.1500   33.1000   55.9300 C.ar    1  LIG1        0.0368
      7 C          24.2100   33.1200   56.8400 C.ar    1  LIG1       -0.0404
      8 C          24.0100   32.7300   58.1700 C.ar    1  LIG1       -0.0597
      9 C          22.7500   32.3000   58.5900 C.ar    1  LIG1       -0.0567
     10 C          21.6800   32.2900   57.6900 C.ar    1  LIG1       -0.0243
     11 C          20.2900   31.8600   58.1700 C.3     1  LIG1        0.0703
     12 N          19.9600   30.4600   57.8700 N.ar    1  LIG1       -0.2245
     13 N          19.4700   30.2000   56.5800 N.ar    1  LIG1       -0.1679
     14 C          19.1900   29.0000   56.1700 C.ar    1  LIG1        0.0918
     15 C          19.4000   27.9300   57.1300 C.ar    1  LIG1       -0.0289
     16 C          19.8700   28.1700   58.3700 C.ar    1  LIG1        0.0064
     17 C          20.2000   29.5000   58.8400 C.ar    1  LIG1        0.2676
     18 O          20.6400   29.7000   59.9800 O.2     1  LIG1       -0.2662
     19 C          18.6900   28.7200   54.8000 C.ar    1  LIG1        0.0075
     20 C          18.8900   29.6500   53.7700 C.ar    1  LIG1       -0.0170
     21 C          18.4500   29.4000   52.4700 C.ar    1  LIG1        0.1267
     22 F          18.6500   30.3100   51.5000 F       1  LIG1       -0.2054
     23 C          17.8100   28.2000   52.1800 C.ar    1  LIG1        0.0088
     24 C          17.6000   27.2600   53.1800 C.ar    1  LIG1        0.1267
     25 F          16.9700   26.1000   52.9000 F       1  LIG1       -0.2054
     26 C          18.0300   27.5200   54.4800 C.ar    1  LIG1       -0.0170
     27 C          21.8800   32.7000   56.3700 C.ar    1  LIG1       -0.0354
     28 H          24.7200   33.9700   50.5900 H       1  LIG1        0.0661
     29 H          26.0000   33.4500   51.6900 H       1  LIG1        0.0661
     30 H          25.4300   35.1300   51.7100 H       1  LIG1        0.0661
     31 H          22.4900   33.1200   53.9800 H       1  LIG1        0.1582
     32 H          25.2100   33.4100   56.5500 H       1  LIG1        0.0636
     33 H          24.8500   32.7300   58.8600 H       1  LIG1        0.0618
     34 H          22.6200   31.9800   59.6100 H       1  LIG1        0.0621
     35 H          20.2000   32.0800   59.2400 H       1  LIG1        0.0560
     36 H          19.5400   32.5100   57.7100 H       1  LIG1        0.0560
     37 H          19.2100   26.9000   56.8700 H       1  LIG1        0.0641
     38 H          20.0200   27.3400   59.0500 H       1  LIG1        0.0673
     39 H          19.4000   30.5900   53.9700 H       1  LIG1        0.0653
     40 H          17.4900   27.9900   51.1700 H       1  LIG1        0.0675
     41 H          17.8300   26.7600   55.2300 H       1  LIG1        0.0653
     42 H          21.0500   32.6800   55.6800 H       1  LIG1        0.0639
@<TRIPOS>BOND
     1     1    28    1
     2    23    40    1
     3    21    22    1
     4     1    29    1
     5     1    30    1
     6     1     2    1
     7    21    23   ar
     8    23    24   ar
     9    20    21   ar
    10     2     3    1
    11    24    25    1
    12    24    26   ar
    13    20    39    1
    14    19    20   ar
    15     3     4    2
    16     3     5   am
    17     5    31    1
    18    19    26   ar
    19    26    41    1
    20     5     6    1
    21    14    19    1
    22    27    42    1
    23     6    27   ar
    24     6     7   ar
    25    13    14   ar
    26    14    15   ar
    27    10    27   ar
    28     7    32    1
    29    12    13   ar
    30     7     8   ar
    31    15    37    1
    32    15    16   ar
    33    10    11    1
    34     9    10   ar
    35    11    36    1
    36    11    12    1
    37    12    17   ar
    38     8     9   ar
    39     8    33    1
    40    11    35    1
    41    16    17   ar
    42    16    38    1
    43     9    34    1
    44    17    18    2
