@<TRIPOS>MOLECULE
lig_CHEMBL3402750_400_10
 43 46 0 0 0
SMALL
GASTEIGER

@<TRIPOS>ATOM
      1 C          23.7400   33.4300   50.5700 C.3     1  LIG1       -0.0319
      2 C          23.9400   33.5300   52.0600 C.ar    1  LIG1        0.0068
      3 C          25.0500   33.9300   52.8100 C.ar    1  LIG1        0.0383
      4 N          24.9400   33.8900   54.1300 N.ar    1  LIG1       -0.2471
      5 C          23.7700   33.4400   54.5100 C.ar    1  LIG1        0.1084
      6 S          22.6900   33.0900   53.1900 S.2     1  LIG1       -0.0725
      7 C          23.4000   33.1300   55.9300 C.ar    1  LIG1        0.0074
      8 C          24.3900   33.1200   56.9200 C.ar    1  LIG1       -0.0520
      9 C          24.1100   32.7400   58.2300 C.ar    1  LIG1       -0.0608
     10 C          22.8100   32.3600   58.5700 C.ar    1  LIG1       -0.0568
     11 C          21.8000   32.3800   57.6200 C.ar    1  LIG1       -0.0254
     12 C          20.3700   32.0300   58.0300 C.3     1  LIG1        0.0703
     13 N          20.0000   30.6200   57.7700 N.ar    1  LIG1       -0.2245
     14 N          19.4500   30.3600   56.5100 N.ar    1  LIG1       -0.1679
     15 C          19.0600   29.1700   56.1500 C.ar    1  LIG1        0.0918
     16 C          19.3000   28.1000   57.1100 C.ar    1  LIG1       -0.0289
     17 C          19.8500   28.3500   58.3300 C.ar    1  LIG1        0.0064
     18 C          20.2300   29.6800   58.7600 C.ar    1  LIG1        0.2676
     19 O          20.6800   29.9100   59.8800 O.2     1  LIG1       -0.2662
     20 C          18.4100   28.9100   54.8400 C.ar    1  LIG1        0.0075
     21 C          17.9300   29.9900   54.0800 C.ar    1  LIG1       -0.0170
     22 C          17.2600   29.7800   52.8800 C.ar    1  LIG1        0.1267
     23 F          16.8000   30.8400   52.1700 F       1  LIG1       -0.2054
     24 C          17.0400   28.4800   52.4200 C.ar    1  LIG1        0.0088
     25 C          17.5100   27.4000   53.1600 C.ar    1  LIG1        0.1267
     26 F          17.2900   26.1400   52.7200 F       1  LIG1       -0.2054
     27 C          18.2000   27.6100   54.3500 C.ar    1  LIG1       -0.0170
     28 C          22.0900   32.7700   56.3000 C.ar    1  LIG1       -0.0471
     29 H          23.6800   32.4000   50.2400 H       1  LIG1        0.0283
     30 H          24.5600   33.9000   50.0100 H       1  LIG1        0.0283
     31 H          22.8200   33.9200   50.2500 H       1  LIG1        0.0283
     32 H          25.9800   34.2600   52.3800 H       1  LIG1        0.0838
     33 H          25.4100   33.3900   56.6800 H       1  LIG1        0.0624
     34 H          24.8900   32.7300   58.9700 H       1  LIG1        0.0618
     35 H          22.6000   32.0600   59.5800 H       1  LIG1        0.0621
     36 H          20.2100   32.2900   59.0700 H       1  LIG1        0.0560
     37 H          19.6800   32.6800   57.4900 H       1  LIG1        0.0560
     38 H          19.0300   27.0800   56.8900 H       1  LIG1        0.0641
     39 H          20.0100   27.5300   59.0100 H       1  LIG1        0.0673
     40 H          18.0700   31.0100   54.4100 H       1  LIG1        0.0653
     41 H          16.5000   28.3200   51.5000 H       1  LIG1        0.0675
     42 H          18.5500   26.7400   54.8800 H       1  LIG1        0.0653
     43 H          21.3000   32.7700   55.5700 H       1  LIG1        0.0628
@<TRIPOS>BOND
     1     1    30    1
     2     1    29    1
     3     1    31    1
     4     1     2    1
     5    24    41    1
     6     2     3   ar
     7     2     6   ar
     8    22    23    1
     9     3    32    1
    10    22    24   ar
    11    24    25   ar
    12    25    26    1
    13     3     4   ar
    14    21    22   ar
    15    25    27   ar
    16     5     6   ar
    17    21    40    1
    18    20    21   ar
    19     4     5   ar
    20    20    27   ar
    21    27    42    1
    22     5     7    1
    23    15    20    1
    24    28    43    1
    25     7    28   ar
    26     7     8   ar
    27    14    15   ar
    28    15    16   ar
    29    11    28   ar
    30    13    14   ar
    31     8    33    1
    32    16    38    1
    33     8     9   ar
    34    16    17   ar
    35    12    37    1
    36    11    12    1
    37    10    11   ar
    38    12    13    1
    39    13    18   ar
    40    12    36    1
    41     9    10   ar
    42     9    34    1
    43    17    18   ar
    44    17    39    1
    45    10    35    1
    46    18    19    2
