@<TRIPOS>MOLECULE
lig_CHEMBL3402753_200_13
 46 49 0 0 0
SMALL
GASTEIGER

@<TRIPOS>ATOM
      1 C          24.6400   33.7600   50.5300 C.3     1  LIG1       -0.0383
      2 C          24.2000   33.6100   51.9700 C.ar    1  LIG1       -0.0323
      3 C          22.9300   33.1300   52.2900 C.ar    1  LIG1       -0.0554
      4 C          22.5600   32.9800   53.6300 C.ar    1  LIG1       -0.0354
      5 C          23.4700   33.3200   54.6400 C.ar    1  LIG1        0.0710
      6 N          24.7000   33.8100   54.3300 N.ar    1  LIG1       -0.2547
      7 C          25.0500   33.9400   53.0200 C.ar    1  LIG1        0.0312
      8 C          23.2000   33.0600   56.1000 C.ar    1  LIG1        0.0007
      9 C          24.2300   33.1100   57.0500 C.ar    1  LIG1       -0.0525
     10 C          24.0200   32.7200   58.3700 C.ar    1  LIG1       -0.0608
     11 C          22.7600   32.2700   58.7800 C.ar    1  LIG1       -0.0568
     12 C          21.7000   32.2500   57.8700 C.ar    1  LIG1       -0.0254
     13 C          20.3100   31.8100   58.3200 C.3     1  LIG1        0.0703
     14 N          19.9700   30.4300   57.9300 N.ar    1  LIG1       -0.2245
     15 N          19.4400   30.2700   56.6500 N.ar    1  LIG1       -0.1679
     16 C          19.0700   29.1200   56.1900 C.ar    1  LIG1        0.0918
     17 C          19.3100   27.9700   57.0500 C.ar    1  LIG1       -0.0289
     18 C          19.8500   28.1200   58.2900 C.ar    1  LIG1        0.0064
     19 C          20.2100   29.4100   58.8300 C.ar    1  LIG1        0.2676
     20 O          20.6500   29.5400   59.9800 O.2     1  LIG1       -0.2662
     21 C          18.4400   28.9600   54.8600 C.ar    1  LIG1        0.0075
     22 C          17.9500   30.0900   54.1800 C.ar    1  LIG1       -0.0170
     23 C          17.3000   29.9700   52.9500 C.ar    1  LIG1        0.1267
     24 F          16.8400   31.0800   52.3200 F       1  LIG1       -0.2054
     25 C          17.1100   28.7100   52.3800 C.ar    1  LIG1        0.0088
     26 C          17.5800   27.5800   53.0400 C.ar    1  LIG1        0.1267
     27 F          17.3900   26.3600   52.5000 F       1  LIG1       -0.2054
     28 C          18.2500   27.7000   54.2600 C.ar    1  LIG1       -0.0170
     29 C          21.9200   32.6700   56.5500 C.ar    1  LIG1       -0.0476
     30 H          25.1800   32.8600   50.2100 H       1  LIG1        0.0278
     31 H          25.3200   34.6100   50.4100 H       1  LIG1        0.0278
     32 H          23.7900   33.9100   49.8700 H       1  LIG1        0.0278
     33 H          22.2300   32.8700   51.5100 H       1  LIG1        0.0621
     34 H          21.5800   32.5800   53.8400 H       1  LIG1        0.0639
     35 H          26.0400   34.3100   52.8200 H       1  LIG1        0.0832
     36 H          25.2300   33.4100   56.7700 H       1  LIG1        0.0624
     37 H          24.8300   32.7300   59.0800 H       1  LIG1        0.0618
     38 H          22.6100   31.9300   59.7900 H       1  LIG1        0.0621
     39 H          20.2100   31.9600   59.4000 H       1  LIG1        0.0560
     40 H          19.5700   32.4900   57.9000 H       1  LIG1        0.0560
     41 H          19.0700   26.9600   56.7500 H       1  LIG1        0.0641
     42 H          20.0200   27.2400   58.9000 H       1  LIG1        0.0673
     43 H          18.0600   31.0800   54.6000 H       1  LIG1        0.0653
     44 H          16.6000   28.6100   51.4400 H       1  LIG1        0.0675
     45 H          18.6000   26.7900   54.7200 H       1  LIG1        0.0653
     46 H          21.0800   32.6400   55.8700 H       1  LIG1        0.0627
@<TRIPOS>BOND
     1     1    32    1
     2     1    30    1
     3     1    31    1
     4     1     2    1
     5    25    44    1
     6     3    33    1
     7     2     3   ar
     8     2     7   ar
     9     3     4   ar
    10    23    24    1
    11    23    25   ar
    12    25    26   ar
    13    26    27    1
    14     7    35    1
    15    22    23   ar
    16     6     7   ar
    17    26    28   ar
    18     4    34    1
    19     4     5   ar
    20    22    43    1
    21    21    22   ar
    22    28    45    1
    23    21    28   ar
    24     5     6   ar
    25     5     8    1
    26    16    21    1
    27    29    46    1
    28     8    29   ar
    29     8     9   ar
    30    15    16   ar
    31    16    17   ar
    32    12    29   ar
    33    14    15   ar
    34    17    41    1
    35     9    36    1
    36     9    10   ar
    37    17    18   ar
    38    12    13    1
    39    11    12   ar
    40    13    40    1
    41    13    14    1
    42    14    19   ar
    43    18    19   ar
    44    18    42    1
    45    13    39    1
    46    10    11   ar
    47    10    37    1
    48    11    38    1
    49    19    20    2
