@<TRIPOS>MOLECULE
lig_CHEMBL3402755_4200_15
 45 48 0 0 0
SMALL
GASTEIGER

@<TRIPOS>ATOM
      1 C          24.9300   34.0400   50.8000 C.3     1  LIG1       -0.0206
      2 C          24.3300   33.8000   52.1700 C.ar    1  LIG1        0.0606
      3 C          23.0500   33.2700   52.3300 C.ar    1  LIG1       -0.0369
      4 C          22.6000   33.0400   53.6400 C.ar    1  LIG1       -0.0322
      5 C          23.4500   33.3600   54.7100 C.ar    1  LIG1        0.0933
      6 N          24.6800   33.9200   54.4700 N.ar    1  LIG1       -0.1490
      7 N          25.1200   34.1300   53.2200 N.ar    1  LIG1       -0.1540
      8 C          23.1200   33.0300   56.1300 C.ar    1  LIG1        0.0024
      9 C          24.1200   33.0300   57.1200 C.ar    1  LIG1       -0.0525
     10 C          23.8500   32.6400   58.4300 C.ar    1  LIG1       -0.0608
     11 C          22.5700   32.2200   58.7800 C.ar    1  LIG1       -0.0568
     12 C          21.5500   32.2100   57.8200 C.ar    1  LIG1       -0.0254
     13 C          20.1500   31.7500   58.2000 C.3     1  LIG1        0.0703
     14 N          19.8900   30.3400   57.8500 N.ar    1  LIG1       -0.2245
     15 N          19.4100   30.1100   56.5600 N.ar    1  LIG1       -0.1679
     16 C          19.1600   28.9200   56.1200 C.ar    1  LIG1        0.0918
     17 C          19.4100   27.8200   57.0400 C.ar    1  LIG1       -0.0289
     18 C          19.8900   28.0400   58.2800 C.ar    1  LIG1        0.0064
     19 C          20.1800   29.3600   58.7800 C.ar    1  LIG1        0.2676
     20 O          20.6500   29.5500   59.9100 O.2     1  LIG1       -0.2662
     21 C          18.6500   28.6600   54.7500 C.ar    1  LIG1        0.0075
     22 C          17.9400   27.4800   54.4300 C.ar    1  LIG1       -0.0170
     23 C          17.4700   27.2600   53.1400 C.ar    1  LIG1        0.1267
     24 F          16.7900   26.1300   52.8500 F       1  LIG1       -0.2054
     25 C          17.7100   28.2000   52.1400 C.ar    1  LIG1        0.0088
     26 C          18.4000   29.3700   52.4300 C.ar    1  LIG1        0.1267
     27 F          18.6200   30.2900   51.4700 F       1  LIG1       -0.2054
     28 C          18.8700   29.6000   53.7300 C.ar    1  LIG1       -0.0170
     29 C          21.8300   32.6400   56.5200 C.ar    1  LIG1       -0.0476
     30 H          25.0400   35.1100   50.6200 H       1  LIG1        0.0293
     31 H          24.3000   33.6300   50.0000 H       1  LIG1        0.0293
     32 H          25.9100   33.5700   50.7200 H       1  LIG1        0.0293
     33 H          22.4200   33.0300   51.4900 H       1  LIG1        0.0637
     34 H          21.6300   32.5900   53.7800 H       1  LIG1        0.0640
     35 H          25.1400   33.3200   56.8900 H       1  LIG1        0.0624
     36 H          24.6300   32.6600   59.1700 H       1  LIG1        0.0618
     37 H          22.3600   31.8900   59.7900 H       1  LIG1        0.0621
     38 H          19.9800   31.9300   59.2700 H       1  LIG1        0.0560
     39 H          19.4200   32.3900   57.7100 H       1  LIG1        0.0560
     40 H          19.2300   26.7900   56.7600 H       1  LIG1        0.0641
     41 H          20.0800   27.2000   58.9400 H       1  LIG1        0.0673
     42 H          17.7400   26.7300   55.1700 H       1  LIG1        0.0653
     43 H          17.3600   28.0200   51.1300 H       1  LIG1        0.0675
     44 H          19.4100   30.5100   53.9300 H       1  LIG1        0.0653
     45 H          21.0200   32.6300   55.8000 H       1  LIG1        0.0627
@<TRIPOS>BOND
     1     1    31    1
     2     1    30    1
     3     1    32    1
     4     1     2    1
     5    25    43    1
     6    26    27    1
     7     3    33    1
     8    25    26   ar
     9    23    25   ar
    10     2     3   ar
    11     2     7   ar
    12     3     4   ar
    13    26    28   ar
    14    23    24    1
    15    22    23   ar
    16     6     7   ar
    17     4    34    1
    18     4     5   ar
    19    28    44    1
    20    21    28   ar
    21    21    22   ar
    22    22    42    1
    23     5     6   ar
    24     5     8    1
    25    16    21    1
    26    29    45    1
    27    15    16   ar
    28    16    17   ar
    29     8    29   ar
    30     8     9   ar
    31    12    29   ar
    32    14    15   ar
    33    17    40    1
    34     9    35    1
    35    17    18   ar
    36     9    10   ar
    37    13    39    1
    38    12    13    1
    39    11    12   ar
    40    13    14    1
    41    14    19   ar
    42    13    38    1
    43    18    19   ar
    44    18    41    1
    45    10    11   ar
    46    10    36    1
    47    11    37    1
    48    19    20    2
