lig_CHEMBL3402744_300_4
  -OEChem-01272013103D

 42 44  0     0  0  0  0  0  0999 V2000
   25.1200   34.0900   51.5900 C   0  0  0  0  0  0  0  0  0  0  0  0
   24.1300   33.7400   52.5500 O   0  0  0  0  0  0  0  0  0  0  0  0
   24.3800   33.8600   53.8700 C   0  0  0  0  0  0  0  0  0  0  0  0
   25.4200   34.3300   54.3400 O   0  0  0  0  0  0  0  0  0  0  0  0
   23.2900   33.3700   54.5600 N   0  0  0  0  0  0  0  0  0  0  0  0
   23.1500   33.1000   55.9300 C   0  0  0  0  0  0  0  0  0  0  0  0
   24.2100   33.1200   56.8400 C   0  0  0  0  0  0  0  0  0  0  0  0
   24.0100   32.7300   58.1700 C   0  0  0  0  0  0  0  0  0  0  0  0
   22.7500   32.3000   58.5900 C   0  0  0  0  0  0  0  0  0  0  0  0
   21.6800   32.2900   57.6900 C   0  0  0  0  0  0  0  0  0  0  0  0
   20.2900   31.8600   58.1700 C   0  0  0  0  0  0  0  0  0  0  0  0
   19.9600   30.4600   57.8700 N   0  0  0  0  0  0  0  0  0  0  0  0
   19.4700   30.2000   56.5800 N   0  0  0  0  0  0  0  0  0  0  0  0
   19.1900   29.0000   56.1700 C   0  0  0  0  0  0  0  0  0  0  0  0
   19.4000   27.9300   57.1300 C   0  0  0  0  0  0  0  0  0  0  0  0
   19.8700   28.1700   58.3700 C   0  0  0  0  0  0  0  0  0  0  0  0
   20.2000   29.5000   58.8400 C   0  0  0  0  0  0  0  0  0  0  0  0
   20.6400   29.7000   59.9800 O   0  0  0  0  0  0  0  0  0  0  0  0
   18.6900   28.7200   54.8000 C   0  0  0  0  0  0  0  0  0  0  0  0
   18.8900   29.6500   53.7700 C   0  0  0  0  0  0  0  0  0  0  0  0
   18.4500   29.4000   52.4700 C   0  0  0  0  0  0  0  0  0  0  0  0
   18.6500   30.3100   51.5000 F   0  0  0  0  0  0  0  0  0  0  0  0
   17.8100   28.2000   52.1800 C   0  0  0  0  0  0  0  0  0  0  0  0
   17.6000   27.2600   53.1800 C   0  0  0  0  0  0  0  0  0  0  0  0
   16.9700   26.1000   52.9000 F   0  0  0  0  0  0  0  0  0  0  0  0
   18.0300   27.5200   54.4800 C   0  0  0  0  0  0  0  0  0  0  0  0
   21.8800   32.7000   56.3700 C   0  0  0  0  0  0  0  0  0  0  0  0
   24.7200   33.9700   50.5900 H   0  0  0  0  0  0  0  0  0  0  0  0
   26.0000   33.4500   51.6900 H   0  0  0  0  0  0  0  0  0  0  0  0
   25.4300   35.1300   51.7100 H   0  0  0  0  0  0  0  0  0  0  0  0
   22.4900   33.1200   53.9800 H   0  0  0  0  0  0  0  0  0  0  0  0
   25.2100   33.4100   56.5500 H   0  0  0  0  0  0  0  0  0  0  0  0
   24.8500   32.7300   58.8600 H   0  0  0  0  0  0  0  0  0  0  0  0
   22.6200   31.9800   59.6100 H   0  0  0  0  0  0  0  0  0  0  0  0
   20.2000   32.0800   59.2400 H   0  0  0  0  0  0  0  0  0  0  0  0
   19.5400   32.5100   57.7100 H   0  0  0  0  0  0  0  0  0  0  0  0
   19.2100   26.9000   56.8700 H   0  0  0  0  0  0  0  0  0  0  0  0
   20.0200   27.3400   59.0500 H   0  0  0  0  0  0  0  0  0  0  0  0
   19.4000   30.5900   53.9700 H   0  0  0  0  0  0  0  0  0  0  0  0
   17.4900   27.9900   51.1700 H   0  0  0  0  0  0  0  0  0  0  0  0
   17.8300   26.7600   55.2300 H   0  0  0  0  0  0  0  0  0  0  0  0
   21.0500   32.6800   55.6800 H   0  0  0  0  0  0  0  0  0  0  0  0
  1 28  1  0  0  0  0
 23 40  1  0  0  0  0
 21 22  1  0  0  0  0
  1 29  1  0  0  0  0
  1 30  1  0  0  0  0
  1  2  1  0  0  0  0
 21 23  2  0  0  0  0
 23 24  1  0  0  0  0
 20 21  1  0  0  0  0
  2  3  1  0  0  0  0
 24 25  1  0  0  0  0
 24 26  2  0  0  0  0
 20 39  1  0  0  0  0
 19 20  2  0  0  0  0
  3  4  2  0  0  0  0
  3  5  1  0  0  0  0
  5 31  1  0  0  0  0
 19 26  1  0  0  0  0
 26 41  1  0  0  0  0
  5  6  1  0  0  0  0
 14 19  1  0  0  0  0
 27 42  1  0  0  0  0
  6 27  2  0  0  0  0
  6  7  1  0  0  0  0
 13 14  2  0  0  0  0
 14 15  1  0  0  0  0
 10 27  1  0  0  0  0
  7 32  1  0  0  0  0
 12 13  1  0  0  0  0
  7  8  2  0  0  0  0
 15 37  1  0  0  0  0
 15 16  2  0  0  0  0
 10 11  1  0  0  0  0
  9 10  2  0  0  0  0
 11 36  1  0  0  0  0
 11 12  1  0  0  0  0
 12 17  1  0  0  0  0
  8  9  1  0  0  0  0
  8 33  1  0  0  0  0
 11 35  1  0  0  0  0
 16 17  1  0  0  0  0
 16 38  1  0  0  0  0
  9 34  1  0  0  0  0
 17 18  2  0  0  0  0
M  END
$$$$
