@<TRIPOS>MOLECULE
lig_CHEMBL3402748_5300_8
 44 47 0 0 0
SMALL
GASTEIGER

@<TRIPOS>ATOM
      1 C          25.4800   34.1900   52.0000 C.3     1  LIG1       -0.0209
      2 C          24.3400   33.7100   52.8600 C.ar    1  LIG1        0.0564
      3 C          23.0500   33.4000   52.5000 C.ar    1  LIG1        0.0245
      4 N          22.4100   33.1000   53.6700 N.ar    1  LIG1       -0.3441
      5 C          23.3400   33.2300   54.6600 C.ar    1  LIG1        0.1384
      6 N          24.5100   33.5900   54.1700 N.ar    1  LIG1       -0.2330
      7 C          23.0800   32.9500   56.1100 C.ar    1  LIG1        0.0176
      8 C          24.1300   32.9900   57.0400 C.ar    1  LIG1       -0.0511
      9 C          23.9100   32.6300   58.3700 C.ar    1  LIG1       -0.0608
     10 C          22.6400   32.2300   58.7800 C.ar    1  LIG1       -0.0568
     11 C          21.5800   32.2100   57.8800 C.ar    1  LIG1       -0.0253
     12 C          20.1900   31.7900   58.3400 C.3     1  LIG1        0.0703
     13 N          19.8600   30.4000   57.9600 N.ar    1  LIG1       -0.2245
     14 N          19.3500   30.2300   56.6700 N.ar    1  LIG1       -0.1679
     15 C          19.0500   29.0700   56.1900 C.ar    1  LIG1        0.0918
     16 C          19.3200   27.9300   57.0500 C.ar    1  LIG1       -0.0289
     17 C          19.8500   28.0800   58.2900 C.ar    1  LIG1        0.0064
     18 C          20.1700   29.3900   58.8400 C.ar    1  LIG1        0.2676
     19 O          20.6500   29.5300   59.9700 O.2     1  LIG1       -0.2662
     20 C          18.4300   28.9000   54.8500 C.ar    1  LIG1        0.0075
     21 C          18.2500   27.6400   54.2600 C.ar    1  LIG1       -0.0170
     22 C          17.5800   27.5100   53.0400 C.ar    1  LIG1        0.1267
     23 F          17.3800   26.2800   52.5000 F       1  LIG1       -0.2054
     24 C          17.0900   28.6400   52.3900 C.ar    1  LIG1        0.0088
     25 C          17.2700   29.9000   52.9500 C.ar    1  LIG1        0.1267
     26 F          16.8000   31.0000   52.3300 F       1  LIG1       -0.2054
     27 C          17.9300   30.0200   54.1700 C.ar    1  LIG1       -0.0170
     28 C          21.8000   32.5900   56.5500 C.ar    1  LIG1       -0.0462
     29 H          26.3300   33.5300   51.9800 H       1  LIG1        0.0293
     30 H          25.8400   35.1300   52.4100 H       1  LIG1        0.0293
     31 H          25.1700   34.3800   50.9700 H       1  LIG1        0.0293
     32 H          22.5300   33.3900   51.5500 H       1  LIG1        0.0825
     33 H          21.4400   32.8300   53.7700 H       1  LIG1        0.1668
     34 H          25.1300   33.2700   56.7300 H       1  LIG1        0.0625
     35 H          24.7300   32.6500   59.0700 H       1  LIG1        0.0618
     36 H          22.4900   31.9300   59.8000 H       1  LIG1        0.0621
     37 H          20.0900   31.9500   59.4200 H       1  LIG1        0.0560
     38 H          19.4500   32.4600   57.9000 H       1  LIG1        0.0560
     39 H          19.1200   26.9100   56.7400 H       1  LIG1        0.0641
     40 H          20.0400   27.2200   58.9000 H       1  LIG1        0.0673
     41 H          18.6000   26.7300   54.7200 H       1  LIG1        0.0653
     42 H          16.5600   28.5300   51.4500 H       1  LIG1        0.0675
     43 H          18.0400   31.0100   54.5800 H       1  LIG1        0.0653
     44 H          20.9700   32.5600   55.8600 H       1  LIG1        0.0628
@<TRIPOS>BOND
     1     1    31    1
     2    24    42    1
     3     3    32    1
     4     1    29    1
     5     1    30    1
     6     1     2    1
     7    25    26    1
     8    24    25   ar
     9    22    24   ar
    10     2     3   ar
    11     3     4   ar
    12    22    23    1
    13     2     6   ar
    14    25    27   ar
    15    21    22   ar
    16     4    33    1
    17     4     5   ar
    18     5     6   ar
    19    27    43    1
    20    20    27   ar
    21    21    41    1
    22    20    21   ar
    23     5     7    1
    24    15    20    1
    25    28    44    1
    26     7    28   ar
    27     7     8   ar
    28    14    15   ar
    29    15    16   ar
    30    11    28   ar
    31    13    14   ar
    32     8    34    1
    33    16    39    1
    34     8     9   ar
    35    16    17   ar
    36    11    12    1
    37    10    11   ar
    38    12    38    1
    39    12    13    1
    40    13    18   ar
    41    17    18   ar
    42    17    40    1
    43    12    37    1
    44     9    10   ar
    45     9    35    1
    46    10    36    1
    47    18    19    2
