@<TRIPOS>MOLECULE
lig_CHEMBL3402752_30000_12
 43 46 0 0 0
SMALL
GASTEIGER

@<TRIPOS>ATOM
      1 C          25.8200   33.9400   52.0900 C.3     1  LIG1       -0.0159
      2 C          24.5800   33.5500   52.8400 C.ar    1  LIG1        0.0759
      3 N          24.5000   33.5200   54.1500 N.ar    1  LIG1       -0.2443
      4 C          23.3100   33.1500   54.6000 C.ar    1  LIG1        0.0784
      5 C          22.3800   32.9200   53.5900 C.ar    1  LIG1        0.0033
      6 S          23.1100   33.1300   52.0400 S.2     1  LIG1       -0.0802
      7 C          23.0800   32.9400   56.0800 C.ar    1  LIG1        0.0012
      8 C          24.1200   33.0200   57.0100 C.ar    1  LIG1       -0.0525
      9 C          23.9100   32.6800   58.3500 C.ar    1  LIG1       -0.0608
     10 C          22.6500   32.2500   58.7700 C.ar    1  LIG1       -0.0568
     11 C          21.5900   32.2000   57.8600 C.ar    1  LIG1       -0.0254
     12 C          20.2000   31.7400   58.3000 C.3     1  LIG1        0.0703
     13 N          19.9100   30.3500   57.9300 N.ar    1  LIG1       -0.2245
     14 N          19.4500   30.1400   56.6200 N.ar    1  LIG1       -0.1679
     15 C          19.2000   28.9500   56.1600 C.ar    1  LIG1        0.0918
     16 C          19.4500   27.8400   57.0600 C.ar    1  LIG1       -0.0289
     17 C          19.9200   28.0300   58.3200 C.ar    1  LIG1        0.0064
     18 C          20.2000   29.3600   58.8400 C.ar    1  LIG1        0.2676
     19 O          20.6500   29.5300   59.9800 O.2     1  LIG1       -0.2662
     20 C          18.6800   28.7100   54.7900 C.ar    1  LIG1        0.0075
     21 C          18.8700   29.6800   53.7900 C.ar    1  LIG1       -0.0170
     22 C          18.4000   29.4600   52.4900 C.ar    1  LIG1        0.1267
     23 F          18.5900   30.4000   51.5400 F       1  LIG1       -0.2054
     24 C          17.7400   28.2800   52.1800 C.ar    1  LIG1        0.0088
     25 C          17.5400   27.3100   53.1600 C.ar    1  LIG1        0.1267
     26 F          16.8800   26.1700   52.8600 F       1  LIG1       -0.2054
     27 C          18.0100   27.5300   54.4500 C.ar    1  LIG1       -0.0170
     28 C          21.8000   32.5700   56.5300 C.ar    1  LIG1       -0.0476
     29 H          25.6100   34.7600   51.4100 H       1  LIG1        0.0298
     30 H          26.1900   33.1300   51.4600 H       1  LIG1        0.0298
     31 H          26.6400   34.2400   52.7400 H       1  LIG1        0.0298
     32 H          21.3500   32.6100   53.6700 H       1  LIG1        0.0715
     33 H          25.1200   33.3000   56.7000 H       1  LIG1        0.0624
     34 H          24.7300   32.7200   59.0500 H       1  LIG1        0.0618
     35 H          22.5000   31.9300   59.7900 H       1  LIG1        0.0621
     36 H          20.0800   31.9200   59.3700 H       1  LIG1        0.0560
     37 H          19.4500   32.3900   57.8400 H       1  LIG1        0.0560
     38 H          19.2900   26.8200   56.7500 H       1  LIG1        0.0641
     39 H          20.1100   27.1800   58.9500 H       1  LIG1        0.0673
     40 H          19.3900   30.6000   53.9900 H       1  LIG1        0.0653
     41 H          17.3800   28.1100   51.1700 H       1  LIG1        0.0675
     42 H          17.8300   26.7500   55.1800 H       1  LIG1        0.0653
     43 H          20.9800   32.5000   55.8400 H       1  LIG1        0.0627
@<TRIPOS>BOND
     1    24    41    1
     2     1    29    1
     3     1    30    1
     4    22    23    1
     5     2     6   ar
     6     5     6   ar
     7     1    31    1
     8     1     2    1
     9    22    24   ar
    10    24    25   ar
    11    21    22   ar
    12     2     3   ar
    13    25    26    1
    14    25    27   ar
    15     5    32    1
    16     4     5   ar
    17    21    40    1
    18    20    21   ar
    19     3     4   ar
    20    20    27   ar
    21    27    42    1
    22     4     7    1
    23    15    20    1
    24    28    43    1
    25     7    28   ar
    26     7     8   ar
    27    14    15   ar
    28    15    16   ar
    29    11    28   ar
    30    13    14   ar
    31     8    33    1
    32    16    38    1
    33     8     9   ar
    34    16    17   ar
    35    12    37    1
    36    11    12    1
    37    10    11   ar
    38    12    13    1
    39    13    18   ar
    40    12    36    1
    41    17    18   ar
    42    17    39    1
    43     9    10   ar
    44     9    34    1
    45    10    35    1
    46    18    19    2
