@<TRIPOS>MOLECULE
lig_CHEMBL3402754_40_14
 45 48 0 0 0
SMALL
GASTEIGER

@<TRIPOS>ATOM
      1 C          24.6600   34.1800   50.5900 C.3     1  LIG1       -0.0368
      2 C          24.2800   33.9300   52.0400 C.ar    1  LIG1       -0.0142
      3 C          25.1700   34.1500   53.0800 C.ar    1  LIG1        0.0343
      4 N          24.8500   33.9300   54.3800 N.ar    1  LIG1       -0.2354
      5 C          23.5900   33.4700   54.6400 C.ar    1  LIG1        0.1597
      6 N          22.6500   33.2400   53.6900 N.ar    1  LIG1       -0.2354
      7 C          23.0100   33.4700   52.4000 C.ar    1  LIG1        0.0343
      8 C          23.2500   33.1200   56.0700 C.ar    1  LIG1        0.0194
      9 C          24.2500   33.1100   57.0600 C.ar    1  LIG1       -0.0510
     10 C          23.9700   32.7000   58.3600 C.ar    1  LIG1       -0.0608
     11 C          22.6900   32.2700   58.7000 C.ar    1  LIG1       -0.0568
     12 C          21.6700   32.2900   57.7500 C.ar    1  LIG1       -0.0253
     13 C          20.2600   31.8700   58.1500 C.3     1  LIG1        0.0703
     14 N          19.9300   30.4700   57.8100 N.ar    1  LIG1       -0.2245
     15 N          19.4000   30.2600   56.5400 N.ar    1  LIG1       -0.1679
     16 C          19.0700   29.0800   56.1000 C.ar    1  LIG1        0.0918
     17 C          19.3300   27.9700   57.0100 C.ar    1  LIG1       -0.0289
     18 C          19.8500   28.1700   58.2400 C.ar    1  LIG1        0.0064
     19 C          20.1900   29.4900   58.7400 C.ar    1  LIG1        0.2676
     20 O          20.6500   29.6500   59.8800 O.2     1  LIG1       -0.2662
     21 C          18.4700   28.8700   54.7500 C.ar    1  LIG1        0.0075
     22 C          18.0400   27.6100   54.3100 C.ar    1  LIG1       -0.0170
     23 C          17.4500   27.4600   53.0500 C.ar    1  LIG1        0.1267
     24 F          17.0200   26.2500   52.6500 F       1  LIG1       -0.2054
     25 C          17.3000   28.5600   52.2100 C.ar    1  LIG1        0.0088
     26 C          17.7300   29.8200   52.6300 C.ar    1  LIG1        0.1267
     27 F          17.5800   30.8900   51.8200 F       1  LIG1       -0.2054
     28 C          18.3200   29.9700   53.8900 C.ar    1  LIG1       -0.0170
     29 C          21.9600   32.7300   56.4500 C.ar    1  LIG1       -0.0461
     30 H          24.1200   33.5100   49.9200 H       1  LIG1        0.0278
     31 H          25.7300   34.0100   50.4400 H       1  LIG1        0.0278
     32 H          24.4300   35.2100   50.3100 H       1  LIG1        0.0278
     33 H          26.1800   34.5000   52.8800 H       1  LIG1        0.0833
     34 H          22.2500   33.2800   51.6400 H       1  LIG1        0.0833
     35 H          25.2600   33.4000   56.8200 H       1  LIG1        0.0625
     36 H          24.7600   32.6900   59.1000 H       1  LIG1        0.0618
     37 H          22.4900   31.9300   59.7100 H       1  LIG1        0.0621
     38 H          20.1000   32.0700   59.2100 H       1  LIG1        0.0560
     39 H          19.5400   32.5300   57.6500 H       1  LIG1        0.0560
     40 H          19.1200   26.9500   56.7300 H       1  LIG1        0.0641
     41 H          20.0400   27.3200   58.8800 H       1  LIG1        0.0673
     42 H          18.1200   26.7300   54.9100 H       1  LIG1        0.0653
     43 H          16.8400   28.4400   51.2400 H       1  LIG1        0.0675
     44 H          18.6400   30.9600   54.1700 H       1  LIG1        0.0653
     45 H          21.1600   32.7300   55.7200 H       1  LIG1        0.0628
@<TRIPOS>BOND
     1     1    30    1
     2     1    32    1
     3     1    31    1
     4     1     2    1
     5    25    43    1
     6     7    34    1
     7    26    27    1
     8     2     7   ar
     9     2     3   ar
    10    25    26   ar
    11    23    25   ar
    12     6     7   ar
    13    26    28   ar
    14    23    24    1
    15     3    33    1
    16    22    23   ar
    17     3     4   ar
    18     5     6   ar
    19    28    44    1
    20    21    28   ar
    21    21    22   ar
    22    22    42    1
    23     4     5   ar
    24     5     8    1
    25    16    21    1
    26    29    45    1
    27     8    29   ar
    28     8     9   ar
    29    15    16   ar
    30    16    17   ar
    31    12    29   ar
    32    14    15   ar
    33    17    40    1
    34     9    35    1
    35    17    18   ar
    36     9    10   ar
    37    13    39    1
    38    12    13    1
    39    11    12   ar
    40    13    14    1
    41    14    19   ar
    42    13    38    1
    43    18    19   ar
    44    18    41    1
    45    10    11   ar
    46    10    36    1
    47    11    37    1
    48    19    20    2
