lig_CHEMBL3402750_400_10
  -OEChem-01272013113D

 43 46  0     0  0  0  0  0  0999 V2000
   23.7400   33.4300   50.5700 C   0  0  0  0  0  0  0  0  0  0  0  0
   23.9400   33.5300   52.0600 C   0  0  0  0  0  0  0  0  0  0  0  0
   25.0500   33.9300   52.8100 C   0  0  0  0  0  0  0  0  0  0  0  0
   24.9400   33.8900   54.1300 N   0  0  0  0  0  0  0  0  0  0  0  0
   23.7700   33.4400   54.5100 C   0  0  0  0  0  0  0  0  0  0  0  0
   22.6900   33.0900   53.1900 S   0  0  0  0  0  0  0  0  0  0  0  0
   23.4000   33.1300   55.9300 C   0  0  0  0  0  0  0  0  0  0  0  0
   24.3900   33.1200   56.9200 C   0  0  0  0  0  0  0  0  0  0  0  0
   24.1100   32.7400   58.2300 C   0  0  0  0  0  0  0  0  0  0  0  0
   22.8100   32.3600   58.5700 C   0  0  0  0  0  0  0  0  0  0  0  0
   21.8000   32.3800   57.6200 C   0  0  0  0  0  0  0  0  0  0  0  0
   20.3700   32.0300   58.0300 C   0  0  0  0  0  0  0  0  0  0  0  0
   20.0000   30.6200   57.7700 N   0  0  0  0  0  0  0  0  0  0  0  0
   19.4500   30.3600   56.5100 N   0  0  0  0  0  0  0  0  0  0  0  0
   19.0600   29.1700   56.1500 C   0  0  0  0  0  0  0  0  0  0  0  0
   19.3000   28.1000   57.1100 C   0  0  0  0  0  0  0  0  0  0  0  0
   19.8500   28.3500   58.3300 C   0  0  0  0  0  0  0  0  0  0  0  0
   20.2300   29.6800   58.7600 C   0  0  0  0  0  0  0  0  0  0  0  0
   20.6800   29.9100   59.8800 O   0  0  0  0  0  0  0  0  0  0  0  0
   18.4100   28.9100   54.8400 C   0  0  0  0  0  0  0  0  0  0  0  0
   17.9300   29.9900   54.0800 C   0  0  0  0  0  0  0  0  0  0  0  0
   17.2600   29.7800   52.8800 C   0  0  0  0  0  0  0  0  0  0  0  0
   16.8000   30.8400   52.1700 F   0  0  0  0  0  0  0  0  0  0  0  0
   17.0400   28.4800   52.4200 C   0  0  0  0  0  0  0  0  0  0  0  0
   17.5100   27.4000   53.1600 C   0  0  0  0  0  0  0  0  0  0  0  0
   17.2900   26.1400   52.7200 F   0  0  0  0  0  0  0  0  0  0  0  0
   18.2000   27.6100   54.3500 C   0  0  0  0  0  0  0  0  0  0  0  0
   22.0900   32.7700   56.3000 C   0  0  0  0  0  0  0  0  0  0  0  0
   23.6800   32.4000   50.2400 H   0  0  0  0  0  0  0  0  0  0  0  0
   24.5600   33.9000   50.0100 H   0  0  0  0  0  0  0  0  0  0  0  0
   22.8200   33.9200   50.2500 H   0  0  0  0  0  0  0  0  0  0  0  0
   25.9800   34.2600   52.3800 H   0  0  0  0  0  0  0  0  0  0  0  0
   25.4100   33.3900   56.6800 H   0  0  0  0  0  0  0  0  0  0  0  0
   24.8900   32.7300   58.9700 H   0  0  0  0  0  0  0  0  0  0  0  0
   22.6000   32.0600   59.5800 H   0  0  0  0  0  0  0  0  0  0  0  0
   20.2100   32.2900   59.0700 H   0  0  0  0  0  0  0  0  0  0  0  0
   19.6800   32.6800   57.4900 H   0  0  0  0  0  0  0  0  0  0  0  0
   19.0300   27.0800   56.8900 H   0  0  0  0  0  0  0  0  0  0  0  0
   20.0100   27.5300   59.0100 H   0  0  0  0  0  0  0  0  0  0  0  0
   18.0700   31.0100   54.4100 H   0  0  0  0  0  0  0  0  0  0  0  0
   16.5000   28.3200   51.5000 H   0  0  0  0  0  0  0  0  0  0  0  0
   18.5500   26.7400   54.8800 H   0  0  0  0  0  0  0  0  0  0  0  0
   21.3000   32.7700   55.5700 H   0  0  0  0  0  0  0  0  0  0  0  0
  1 30  1  0  0  0  0
  1 29  1  0  0  0  0
  1 31  1  0  0  0  0
  1  2  1  0  0  0  0
 24 41  1  0  0  0  0
  2  3  2  0  0  0  0
  2  6  1  0  0  0  0
 22 23  1  0  0  0  0
  3 32  1  0  0  0  0
 22 24  2  0  0  0  0
 24 25  1  0  0  0  0
 25 26  1  0  0  0  0
  3  4  1  0  0  0  0
 21 22  1  0  0  0  0
 25 27  2  0  0  0  0
  5  6  1  0  0  0  0
 21 40  1  0  0  0  0
 20 21  2  0  0  0  0
  4  5  2  0  0  0  0
 20 27  1  0  0  0  0
 27 42  1  0  0  0  0
  5  7  1  0  0  0  0
 15 20  1  0  0  0  0
 28 43  1  0  0  0  0
  7 28  2  0  0  0  0
  7  8  1  0  0  0  0
 14 15  2  0  0  0  0
 15 16  1  0  0  0  0
 11 28  1  0  0  0  0
 13 14  1  0  0  0  0
  8 33  1  0  0  0  0
 16 38  1  0  0  0  0
  8  9  2  0  0  0  0
 16 17  2  0  0  0  0
 12 37  1  0  0  0  0
 11 12  1  0  0  0  0
 10 11  2  0  0  0  0
 12 13  1  0  0  0  0
 13 18  1  0  0  0  0
 12 36  1  0  0  0  0
  9 10  1  0  0  0  0
  9 34  1  0  0  0  0
 17 18  1  0  0  0  0
 17 39  1  0  0  0  0
 10 35  1  0  0  0  0
 18 19  2  0  0  0  0
M  END
$$$$
