@<TRIPOS>MOLECULE
lig_CHEMBL3402751_2100_11
 43 46 0 0 0
SMALL
GASTEIGER

@<TRIPOS>ATOM
      1 C          25.4600   34.0600   51.8700 C.3     1  LIG1       -0.0218
      2 C          24.2500   33.5700   52.6100 C.ar    1  LIG1        0.0461
      3 C          23.0500   33.1200   52.0700 C.ar    1  LIG1       -0.0013
      4 S          21.9600   32.7300   53.3500 S.2     1  LIG1       -0.0754
      5 C          23.2000   33.1700   54.4900 C.ar    1  LIG1        0.1085
      6 N          24.3200   33.5700   53.9300 N.ar    1  LIG1       -0.2442
      7 C          23.0100   32.9900   55.9700 C.ar    1  LIG1        0.0074
      8 C          24.0900   33.1200   56.8500 C.ar    1  LIG1       -0.0520
      9 C          23.9500   32.8000   58.2000 C.ar    1  LIG1       -0.0608
     10 C          22.7200   32.3500   58.6900 C.ar    1  LIG1       -0.0568
     11 C          21.6200   32.2500   57.8300 C.ar    1  LIG1       -0.0254
     12 C          20.2600   31.7900   58.3500 C.3     1  LIG1        0.0703
     13 N          19.9400   30.4000   57.9500 N.ar    1  LIG1       -0.2245
     14 N          19.4200   30.2300   56.6700 N.ar    1  LIG1       -0.1679
     15 C          19.0800   29.0700   56.2000 C.ar    1  LIG1        0.0918
     16 C          19.3200   27.9300   57.0700 C.ar    1  LIG1       -0.0289
     17 C          19.8500   28.0900   58.3000 C.ar    1  LIG1        0.0064
     18 C          20.2000   29.3900   58.8400 C.ar    1  LIG1        0.2676
     19 O          20.6500   29.5300   59.9800 O.2     1  LIG1       -0.2662
     20 C          18.4700   28.9100   54.8500 C.ar    1  LIG1        0.0075
     21 C          18.2400   27.6400   54.2800 C.ar    1  LIG1       -0.0170
     22 C          17.5900   27.5200   53.0500 C.ar    1  LIG1        0.1267
     23 F          17.3600   26.2900   52.5300 F       1  LIG1       -0.2054
     24 C          17.1800   28.6500   52.3600 C.ar    1  LIG1        0.0088
     25 C          17.4100   29.9200   52.9000 C.ar    1  LIG1        0.1267
     26 F          17.0000   31.0200   52.2400 F       1  LIG1       -0.2054
     27 C          18.0500   30.0400   54.1300 C.ar    1  LIG1       -0.0170
     28 C          21.7700   32.5900   56.4900 C.ar    1  LIG1       -0.0471
     29 H          25.6000   35.1200   52.0700 H       1  LIG1        0.0293
     30 H          25.3500   33.9600   50.7900 H       1  LIG1        0.0293
     31 H          26.3600   33.5300   52.1500 H       1  LIG1        0.0293
     32 H          22.7600   33.0400   51.0300 H       1  LIG1        0.0712
     33 H          25.0600   33.4300   56.4900 H       1  LIG1        0.0624
     34 H          24.8000   32.8800   58.8600 H       1  LIG1        0.0618
     35 H          22.6300   32.0600   59.7200 H       1  LIG1        0.0621
     36 H          20.2100   31.9300   59.4300 H       1  LIG1        0.0560
     37 H          19.5000   32.4500   57.9500 H       1  LIG1        0.0560
     38 H          19.0900   26.9200   56.7600 H       1  LIG1        0.0641
     39 H          20.0200   27.2200   58.9200 H       1  LIG1        0.0673
     40 H          18.5400   26.7300   54.7700 H       1  LIG1        0.0653
     41 H          16.6800   28.5500   51.4100 H       1  LIG1        0.0675
     42 H          18.1900   31.0400   54.5300 H       1  LIG1        0.0653
     43 H          20.9100   32.4900   55.8400 H       1  LIG1        0.0628
@<TRIPOS>BOND
     1     1    30    1
     2     3    32    1
     3    24    41    1
     4     1    29    1
     5     1    31    1
     6     1     2    1
     7     2     3   ar
     8     3     4   ar
     9    25    26    1
    10    24    25   ar
    11    22    24   ar
    12    22    23    1
    13     2     6   ar
    14    25    27   ar
    15    21    22   ar
    16     4     5   ar
    17     5     6   ar
    18    27    42    1
    19    20    27   ar
    20    21    40    1
    21    20    21   ar
    22     5     7    1
    23    15    20    1
    24    28    43    1
    25     7    28   ar
    26     7     8   ar
    27    14    15   ar
    28    15    16   ar
    29    11    28   ar
    30     8    33    1
    31    13    14   ar
    32    16    38    1
    33     8     9   ar
    34    16    17   ar
    35    11    12    1
    36    10    11   ar
    37    12    13    1
    38    13    18   ar
    39    12    37    1
    40     9    10   ar
    41     9    34    1
    42    17    18   ar
    43    17    39    1
    44    12    36    1
    45    10    35    1
    46    18    19    2
