lig_36_L
     RDKit          3D

 49 52  0  0  0  0  0  0  0  0999 V2000
   15.8090  -11.2720   17.5710 C   0  0  0  0  0  0  0  0  0  0  0  0
   16.3250  -12.5660   17.8940 O   0  0  0  0  0  0  0  0  0  0  0  0
   17.6940  -12.6500   17.4880 C   0  0  0  0  0  0  0  0  0  0  0  0
    8.3330   -3.1610   15.8840 C   0  0  0  0  0  0  0  0  0  0  0  0
   15.7560  -11.8640   15.3280 F   0  0  0  0  0  0  0  0  0  0  0  0
   14.3490   -6.1890   18.8260 O   0  0  0  0  0  0  0  0  0  0  0  0
   15.4290   -5.3490   16.9710 N   0  0  0  0  0  0  0  0  0  0  0  0
   15.5930  -10.3670   18.5400 C   0  0  0  0  0  0  0  0  0  0  0  0
   14.8550   -6.7880   15.3480 N   0  0  0  0  0  0  0  0  0  0  0  0
   15.0920   -9.1010   18.2580 C   0  0  0  0  0  0  0  0  0  0  0  0
   16.4320   -5.1830   14.8490 N   0  0  0  0  0  0  0  0  0  0  0  0
   14.7990   -8.7380   16.9380 C   0  0  0  0  0  0  0  0  0  0  0  0
    9.8820   -2.9390   14.0970 N   0  0  0  0  0  0  0  0  0  0  0  0
   15.0340   -9.6980   15.9430 C   0  0  0  0  0  0  0  0  0  0  0  0
   15.5360  -10.9490   16.2960 C   0  0  0  0  0  0  0  0  0  0  0  0
   14.2470   -7.3370   16.6190 C   0  0  1  0  0  0  0  0  0  0  0  0
   14.6650   -6.2530   17.6450 C   0  0  0  0  0  0  0  0  0  0  0  0
   15.5450   -5.7480   15.6900 C   0  0  0  0  0  0  0  0  0  0  0  0
   16.0040   -4.1780   17.5850 C   0  0  0  0  0  0  0  0  0  0  0  0
   12.7180   -7.3670   16.5030 C   0  0  0  0  0  0  0  0  0  0  0  0
   11.9360   -8.4980   16.7650 C   0  0  0  0  0  0  0  0  0  0  0  0
   10.5480   -8.4390   16.6340 C   0  0  0  0  0  0  0  0  0  0  0  0
    9.9140   -7.2600   16.2460 C   0  0  0  0  0  0  0  0  0  0  0  0
   10.6620   -6.1100   15.9770 C   0  0  0  0  0  0  0  0  0  0  0  0
   12.0570   -6.1860   16.1130 C   0  0  0  0  0  0  0  0  0  0  0  0
   10.0240   -4.8560   15.5740 C   0  0  0  0  0  0  0  0  0  0  0  0
   10.4490   -4.1010   14.4970 C   0  0  0  0  0  0  0  0  0  0  0  0
    8.8380   -2.5170   14.8220 C   0  0  0  0  0  0  0  0  0  0  0  0
    8.9370   -4.3070   16.2330 C   0  0  0  0  0  0  0  0  0  0  0  0
    8.5450   -4.8450   17.0960 H   0  0  0  0  0  0  0  0  0  0  0  0
   16.2120   -4.3830   18.6350 H   0  0  0  0  0  0  0  0  0  0  0  0
   15.8150  -10.6320   19.5740 H   0  0  0  0  0  0  0  0  0  0  0  0
   14.9280   -8.3890   19.0660 H   0  0  0  0  0  0  0  0  0  0  0  0
   14.8240   -9.4660   14.8990 H   0  0  0  0  0  0  0  0  0  0  0  0
    8.3670   -1.5800   14.5230 H   0  0  0  0  0  0  0  0  0  0  0  0
   18.0110  -11.6900   17.0790 H   0  0  0  0  0  0  0  0  0  0  0  0
    9.9510   -9.3280   16.8380 H   0  0  0  0  0  0  0  0  0  0  0  0
   12.4130   -9.4280   17.0730 H   0  0  0  0  0  0  0  0  0  0  0  0
    8.8280   -7.2340   16.1520 H   0  0  0  0  0  0  0  0  0  0  0  0
   12.6520   -5.2960   15.9090 H   0  0  0  0  0  0  0  0  0  0  0  0
   11.3030   -4.4680   13.9280 H   0  0  0  0  0  0  0  0  0  0  0  0
    7.4760   -2.7740   16.4360 H   0  0  0  0  0  0  0  0  0  0  0  0
   15.3040   -3.3460   17.5080 H   0  0  0  0  0  0  0  0  0  0  0  0
   17.8010  -13.4230   16.7270 H   0  0  0  0  0  0  0  0  0  0  0  0
   16.9320   -3.9200   17.0750 H   0  0  0  0  0  0  0  0  0  0  0  0
   18.3130  -12.9000   18.3490 H   0  0  0  0  0  0  0  0  0  0  0  0
   16.5710   -5.5710   13.9270 H   0  0  0  0  0  0  0  0  0  0  0  0
   16.1663   -4.2246   14.6728 H   0  0  0  0  0  0  0  0  0  0  0  0
   14.8144   -7.0709   14.3793 H   0  0  0  0  0  0  0  0  0  0  0  0
  1  2  1  0
  1  8  2  0
  1 15  1  0
  2  3  1  0
  3 36  1  0
  3 44  1  0
  3 46  1  0
  4 28  2  0
  4 29  1  0
  4 42  1  0
  5 15  1  0
  6 17  2  0
  7 17  1  0
  7 18  1  0
  7 19  1  0
  8 10  1  0
  8 32  1  0
  9 16  1  0
  9 18  2  0
  9 49  1  0
 10 12  2  0
 10 33  1  0
 11 18  1  0
 11 47  1  0
 11 48  1  0
 12 14  1  0
 16 12  1  1
 13 27  2  0
 13 28  1  0
 14 15  2  0
 14 34  1  0
 16 17  1  0
 16 20  1  0
 19 31  1  0
 19 43  1  0
 19 45  1  0
 20 21  2  0
 20 25  1  0
 21 22  1  0
 21 38  1  0
 22 23  2  0
 22 37  1  0
 23 24  1  0
 23 39  1  0
 24 25  2  0
 24 26  1  0
 25 40  1  0
 26 27  1  0
 26 29  2  0
 27 41  1  0
 28 35  1  0
 29 30  1  0
M  CHG  1   9   1
M  END
>  <s_m_entry_id>  (1) 
9

>  <s_m_entry_name>  (1) 
lig_36_L.1

>  <s_pdb_PDB_TITLE>  (1) 
MX MODEL

>  <i_pdb_PDB_Model>  (1) 
1

>  <s_pdb_PDB_format_version>  (1) 
3

>  <s_m_Source_Path>  (1) 
/projects/CNS/OGA/FEP_compare/PLBenchmarks/PLBenchmarks/data/2020-02-06_bace_p2/03_docked

>  <s_m_Source_File>  (1) 
lig_36_L.pdb

>  <i_m_Source_File_Index>  (1) 
1

$$$$
