lig_CAT-13o
     RDKit          3D

 42 45  0  0  0  0  0  0  0  0999 V2000
   13.4000   -2.5200   -0.8400 C   0  0  0  0  0  0  0  0  0  0  0  0
   15.3600   -2.5700    0.5400 N   0  0  0  0  0  0  0  0  0  0  0  0
   12.6300   -2.3900   -1.7700 O   0  0  0  0  0  0  0  0  0  0  0  0
   14.9400   -2.7400   -0.9200 C   0  0  2  0  0  0  0  0  0  0  0  0
   13.0500   -2.4700    0.4900 N   0  0  0  0  0  0  0  0  0  0  0  0
   14.2600   -2.5000    1.2800 C   0  0  0  0  0  0  0  0  0  0  0  0
   14.2700   -2.3600    2.6100 N   0  0  0  0  0  0  0  0  0  0  0  0
   11.6700   -2.2900    0.9600 C   0  0  0  0  0  0  0  0  0  0  0  0
   15.9600    4.0400   -0.3400 C   0  0  0  0  0  0  0  0  0  0  0  0
   16.7700    4.7400    1.0500 Cl  0  0  0  0  0  0  0  0  0  0  0  0
   15.6100   -1.6200   -1.7500 C   0  0  0  0  0  0  0  0  0  0  0  0
   16.4500   -1.9300   -2.8100 C   0  0  0  0  0  0  0  0  0  0  0  0
   16.9900   -0.9200   -3.5900 C   0  0  0  0  0  0  0  0  0  0  0  0
   16.7200    0.4100   -3.2900 C   0  0  0  0  0  0  0  0  0  0  0  0
   15.9100    0.7400   -2.2000 C   0  0  0  0  0  0  0  0  0  0  0  0
   15.3500   -0.2900   -1.4400 C   0  0  0  0  0  0  0  0  0  0  0  0
   15.0400    4.7100   -1.0300 C   0  0  0  0  0  0  0  0  0  0  0  0
   16.2500    2.7900   -0.7600 C   0  0  0  0  0  0  0  0  0  0  0  0
   15.6500    2.1700   -1.8500 C   0  0  0  0  0  0  0  0  0  0  0  0
   14.7100    2.9300   -2.5500 C   0  0  0  0  0  0  0  0  0  0  0  0
   14.4000    4.2100   -2.1400 C   0  0  0  0  0  0  0  0  0  0  0  0
   13.6700    4.8100   -2.6800 H   0  0  0  0  0  0  0  0  0  0  0  0
   14.7800    5.7200   -0.6900 H   0  0  0  0  0  0  0  0  0  0  0  0
   14.2300    2.5100   -3.4300 H   0  0  0  0  0  0  0  0  0  0  0  0
   17.0100    2.2300   -0.2100 H   0  0  0  0  0  0  0  0  0  0  0  0
   14.6900   -0.0400   -0.6000 H   0  0  0  0  0  0  0  0  0  0  0  0
   17.1400    1.2000   -3.9100 H   0  0  0  0  0  0  0  0  0  0  0  0
   16.6900   -2.9700   -3.0300 H   0  0  0  0  0  0  0  0  0  0  0  0
   17.6300   -1.1700   -4.4300 H   0  0  0  0  0  0  0  0  0  0  0  0
   13.3900   -2.2700    3.1100 H   0  0  0  0  0  0  0  0  0  0  0  0
   15.1400   -2.3500    3.1200 H   0  0  0  0  0  0  0  0  0  0  0  0
   11.3600   -1.2600    0.7800 H   0  0  0  0  0  0  0  0  0  0  0  0
   11.6200   -2.5000    2.0300 H   0  0  0  0  0  0  0  0  0  0  0  0
   11.0200   -2.9700    0.4200 H   0  0  0  0  0  0  0  0  0  0  0  0
   15.2400   -5.8200   -2.7900 C   0  0  0  0  0  0  0  0  0  0  0  0
   14.9300   -6.5700   -3.5000 H   0  0  0  0  0  0  0  0  0  0  0  0
   14.5300   -4.6300   -2.4600 N   0  0  0  0  0  0  0  0  0  0  0  0
   15.2800   -3.9300   -1.4900 C   0  0  0  0  0  0  0  0  0  0  0  0
   16.4500   -4.6800   -1.2000 S   0  0  0  0  0  0  0  0  0  0  0  0
   16.4300   -5.8500   -2.0100 C   0  0  0  0  0  0  0  0  0  0  0  0
   17.1800   -6.6300   -2.0300 H   0  0  0  0  0  0  0  0  0  0  0  0
   16.2680   -2.5094    0.9781 H   0  0  0  0  0  0  0  0  0  0  0  0
  1  3  2  0
  1  4  1  0
  1  5  1  0
  2  4  1  0
  2  6  2  0
  2 42  1  0
  4 11  1  6
  4 38  1  0
  5  8  1  0
  5  6  1  0
  6  7  1  0
  7 30  1  0
  7 31  1  0
  8 34  1  0
  8 32  1  0
  8 33  1  0
  9 17  2  0
  9 18  1  0
  9 10  1  0
 11 12  2  0
 11 16  1  0
 12 13  1  0
 12 28  1  0
 13 29  1  0
 13 14  2  0
 14 27  1  0
 14 15  1  0
 15 19  1  0
 15 16  2  0
 16 26  1  0
 17 21  1  0
 17 23  1  0
 18 19  2  0
 18 25  1  0
 19 20  1  0
 20 24  1  0
 20 21  2  0
 21 22  1  0
 35 36  1  0
 35 37  1  0
 35 40  2  0
 37 38  2  0
 38 39  1  0
 39 40  1  0
 40 41  1  0
M  CHG  1   2   1
M  END
>  <s_m_entry_id>  (1) 
26

>  <s_m_entry_name>  (1) 
lig_CAT-13o.1

>  <s_m_Source_Path>  (1) 
C:\Users\dhahn3\Downloads\bace

>  <s_m_Source_File>  (1) 
lig_CAT-13o.sdf

>  <i_m_Source_File_Index>  (1) 
1

$$$$
