@<TRIPOS>MOLECULE
*****
   68    72     1     0     0
SMALL
GASTEIGER


@<TRIPOS>ATOM
      1 O            -6.1517   -4.2417   -1.6616 O.2      1 UNL1      -0.2734
      2 C            -5.4910   -3.2320   -1.7947 C.2      1 UNL1       0.2385
      3 N            -4.9311   -3.0401   -3.0136 N.am     1 UNL1      -0.3132
      4 C            -4.3699   -1.7906   -3.4987 C.3      1 UNL1       0.0156
      5 C            -2.9713   -1.8660   -4.1111 C.3      1 UNL1      -0.0120
      6 C            -2.7995   -1.8918   -5.6156 C.ar     1 UNL1      -0.0432
      7 C            -1.5266   -2.2157   -6.0840 C.ar     1 UNL1      -0.0584
      8 C            -1.2015   -2.0563   -7.4257 C.ar     1 UNL1      -0.0588
      9 C            -2.1664   -1.6047   -8.3212 C.ar     1 UNL1      -0.0264
     10 C            -3.4538   -1.3234   -7.8679 C.ar     1 UNL1       0.1237
     11 F            -4.3838   -0.8855   -8.7335 F        1 UNL1      -0.2055
     12 C            -3.7740   -1.4533   -6.5176 C.ar     1 UNL1      -0.0232
     13 C            -5.2581   -2.2952   -0.5847 C.3      1 UNL1       0.1338
     14 C            -6.0366   -0.9435   -0.5855 C.ar     1 UNL1       0.0002
     15 C            -7.1964   -0.8639    0.2001 C.ar     1 UNL1      -0.0534
     16 C            -7.9579    0.3028    0.2206 C.ar     1 UNL1      -0.0433
     17 C            -7.5574    1.3877   -0.5498 C.ar     1 UNL1       0.0276
     18 N            -6.4410    1.3601   -1.2988 N.ar     1 UNL1      -0.2629
     19 C            -5.7092    0.2258   -1.3049 C.ar     1 UNL1       0.0330
     20 N            -3.8955   -2.3702    0.0721 N.am     1 UNL1      -0.2488
     21 C            -3.7141   -2.7618    1.3813 C.2      1 UNL1       0.2870
     22 O            -2.7542   -2.3292    1.9961 O.2      1 UNL1      -0.2662
     23 C            -4.7134   -3.6114    2.0868 C.ar     1 UNL1       0.1896
     24 C            -5.5053   -4.6118    1.5658 C.ar     1 UNL1      -0.0113
     25 C            -6.3133   -5.0719    2.6385 C.ar     1 UNL1      -0.0231
     26 C            -5.8989   -4.3569    3.7255 C.ar     1 UNL1       0.0928
     27 O            -4.8591   -3.4971    3.4571 O.2      1 UNL1      -0.4583
     28 C            -2.7714   -1.7353   -0.5825 C.ar     1 UNL1       0.0379
     29 C            -2.6797   -0.3459   -0.6448 C.ar     1 UNL1      -0.0400
     30 C            -1.6517    0.2741   -1.3498 C.ar     1 UNL1      -0.0565
     31 C            -0.6114   -0.4740   -1.9128 C.ar     1 UNL1      -0.0442
     32 C             0.4895    0.1721   -2.7748 C.3      1 UNL1      -0.0158
     33 C             0.9087    1.6147   -2.4137 C.3      1 UNL1      -0.0462
     34 C             1.5335    2.2062   -3.6907 C.3      1 UNL1      -0.0525
     35 C             0.9811    1.3894   -4.8720 C.3      1 UNL1      -0.0525
     36 C             0.1131    0.2748   -4.2655 C.3      1 UNL1      -0.0462
     37 C            -0.6233   -1.8609   -1.7151 C.ar     1 UNL1      -0.0565
     38 C            -1.6948   -2.4872   -1.0658 C.ar     1 UNL1      -0.0400
     39 H            -5.1047   -3.7471   -3.7125 H        1 UNL1       0.1488
     40 H            -5.0938   -1.2568   -4.1165 H        1 UNL1       0.0465
     41 H            -4.1872   -1.2179   -2.6180 H        1 UNL1       0.0465
     42 H            -2.4820   -0.9486   -3.7895 H        1 UNL1       0.0328
     43 H            -2.4201   -2.6902   -3.6580 H        1 UNL1       0.0328
     44 H            -0.7622   -2.5471   -5.3843 H        1 UNL1       0.0620
     45 H            -0.1896   -2.2630   -7.7638 H        1 UNL1       0.0619
     46 H            -1.9110   -1.4639   -9.3676 H        1 UNL1       0.0646
     47 H            -4.7703   -1.1775   -6.1851 H        1 UNL1       0.0649
     48 H            -5.8883   -2.8263    0.1093 H        1 UNL1       0.0652
     49 H            -7.5198   -1.7073    0.8044 H        1 UNL1       0.0622
     50 H            -8.8563    0.3672    0.8281 H        1 UNL1       0.0633
     51 H            -8.1235    2.3169   -0.5724 H        1 UNL1       0.0829
     52 H            -4.8171    0.3514   -1.8975 H        1 UNL1       0.0833
     53 H            -5.5354   -4.9887    0.5539 H        1 UNL1       0.0657
     54 H            -7.0922   -5.8267    2.5921 H        1 UNL1       0.0649
     55 H            -6.2266   -4.3547    4.7587 H        1 UNL1       0.1029
     56 H            -3.4315    0.2709   -0.1648 H        1 UNL1       0.0636
     57 H            -1.6956    1.3512   -1.4604 H        1 UNL1       0.0621
     58 H             1.3898   -0.4458   -2.7107 H        1 UNL1       0.0349
     59 H             0.0517    2.2338   -2.1536 H        1 UNL1       0.0271
     60 H             1.6111    1.6321   -1.5777 H        1 UNL1       0.0271
     61 H             1.2784    3.2643   -3.7938 H        1 UNL1       0.0265
     62 H             2.6215    2.1167   -3.6578 H        1 UNL1       0.0265
     63 H             0.3855    2.0148   -5.5429 H        1 UNL1       0.0265
     64 H             1.8051    0.9615   -5.4484 H        1 UNL1       0.0265
     65 H             0.2901   -0.6686   -4.7809 H        1 UNL1       0.0271
     66 H            -0.9373    0.5505   -4.3764 H        1 UNL1       0.0271
     67 H             0.1876   -2.4706   -2.1079 H        1 UNL1       0.0621
     68 H            -1.6923   -3.5690   -0.9520 H        1 UNL1       0.0636
@<TRIPOS>BOND
     1     1     2    2
     2     2     3   am
     3     3     4    1
     4     4     5    1
     5     5     6    1
     6     6     7   ar
     7     7     8   ar
     8     8     9   ar
     9     9    10   ar
    10    10    11    1
    11    10    12   ar
    12    14    15   ar
    13    15    16   ar
    14    16    17   ar
    15    17    18   ar
    16    18    19   ar
    17    13    20    1
    18    20    21   am
    19    21    22    2
    20    21    23    1
    21    23    24   ar
    22    24    25   ar
    23    25    26   ar
    24    26    27   ar
    25    20    28    1
    26    28    29   ar
    27    29    30   ar
    28    30    31   ar
    29    31    32    1
    30    32    33    1
    31    33    34    1
    32    34    35    1
    33    35    36    1
    34    31    37   ar
    35    37    38   ar
    36    12     6   ar
    37    19    14   ar
    38    27    23   ar
    39    38    28   ar
    40    36    32    1
    41     3    39    1
    42     4    40    1
    43     4    41    1
    44     5    42    1
    45     5    43    1
    46     7    44    1
    47     8    45    1
    48     9    46    1
    49    12    47    1
    50    13    48    1
    51    15    49    1
    52    16    50    1
    53    17    51    1
    54    19    52    1
    55    24    53    1
    56    25    54    1
    57    26    55    1
    58    29    56    1
    59    30    57    1
    60    32    58    1
    61    33    59    1
    62    33    60    1
    63    34    61    1
    64    34    62    1
    65    35    63    1
    66    35    64    1
    67    36    65    1
    68    36    66    1
    69    37    67    1
    70    38    68    1
    71    13    14    1
    72    13     2    1
@<TRIPOS>SUBSTRUCTURE
     1 UNL1        1 
