@<TRIPOS>MOLECULE
*****
   60    63     1     0     0
SMALL
GASTEIGER


@<TRIPOS>ATOM
      1 C             0.5008    3.2754   -0.3902 C.3      1 UNL1      -0.0014
      2 C             0.5992    2.0447    0.4897 C.2      1 UNL1       0.1601
      3 O             1.0265    2.1573    1.6221 O.2      1 UNL1      -0.2924
      4 C             0.1525    0.7094   -0.0476 C.ar     1 UNL1       0.0172
      5 C            -0.4321    0.5757   -1.3095 C.ar     1 UNL1      -0.0495
      6 C            -0.9481   -0.6500   -1.7268 C.ar     1 UNL1      -0.0396
      7 C            -0.8202   -1.8073   -0.9435 C.ar     1 UNL1       0.0379
      8 N            -1.3917   -3.0795   -1.3762 N.am     1 UNL1      -0.2488
      9 C            -1.9761   -4.0221   -0.5436 C.2      1 UNL1       0.2870
     10 O            -2.0994   -5.1749   -0.8991 O.2      1 UNL1      -0.2662
     11 C            -2.1984   -3.7017    0.8857 C.ar     1 UNL1       0.1896
     12 C            -2.6338   -2.5200    1.4320 C.ar     1 UNL1      -0.0113
     13 C            -2.5219   -2.6929    2.8395 C.ar     1 UNL1      -0.0231
     14 C            -2.0558   -3.9668    3.0104 C.ar     1 UNL1       0.0928
     15 O            -1.9339   -4.6695    1.8372 O.2      1 UNL1      -0.4583
     16 C            -1.2305   -3.4190   -2.8358 C.3      1 UNL1       0.1338
     17 C            -2.5881   -3.6473   -3.5249 C.2      1 UNL1       0.2385
     18 O            -3.2292   -4.6643   -3.3642 O.2      1 UNL1      -0.2734
     19 N            -3.2053   -2.6462   -4.1993 N.am     1 UNL1      -0.3132
     20 C            -2.5906   -1.6448   -5.0838 C.3      1 UNL1       0.0156
     21 C            -2.5010   -2.1157   -6.5563 C.3      1 UNL1      -0.0120
     22 C            -3.8262   -2.2253   -7.3144 C.ar     1 UNL1      -0.0432
     23 C            -3.9896   -1.5330   -8.5201 C.ar     1 UNL1      -0.0584
     24 C            -5.1595   -1.6687   -9.2676 C.ar     1 UNL1      -0.0588
     25 C            -6.1866   -2.4916   -8.8138 C.ar     1 UNL1      -0.0264
     26 C            -6.0321   -3.1858   -7.6177 C.ar     1 UNL1       0.1237
     27 F            -7.0187   -3.9875   -7.1810 F        1 UNL1      -0.2055
     28 C            -4.8561   -3.0682   -6.8788 C.ar     1 UNL1      -0.0232
     29 C            -0.2434   -4.5474   -3.1840 C.ar     1 UNL1       0.0002
     30 C            -0.0043   -4.8417   -4.5296 C.ar     1 UNL1      -0.0534
     31 C             0.8775   -5.8646   -4.8670 C.ar     1 UNL1      -0.0433
     32 C             1.5106   -6.5718   -3.8486 C.ar     1 UNL1       0.0276
     33 N             1.3272   -6.2850   -2.5423 N.ar     1 UNL1      -0.2629
     34 C             0.4736   -5.2833   -2.2282 C.ar     1 UNL1       0.0330
     35 C            -0.1025   -1.6867    0.2563 C.ar     1 UNL1      -0.0396
     36 C             0.3104   -0.4413    0.7281 C.ar     1 UNL1      -0.0495
     37 H             0.9546    4.1382    0.1042 H        1 UNL1       0.0309
     38 H            -0.5434    3.5105   -0.6075 H        1 UNL1       0.0309
     39 H             1.0273    3.1100   -1.3326 H        1 UNL1       0.0309
     40 H            -0.5347    1.4333   -1.9685 H        1 UNL1       0.0625
     41 H            -1.4596   -0.6795   -2.6811 H        1 UNL1       0.0636
     42 H            -2.9451   -1.6175    0.9173 H        1 UNL1       0.0657
     43 H            -2.7189   -1.9516    3.6061 H        1 UNL1       0.0649
     44 H            -1.7636   -4.5239    3.8938 H        1 UNL1       0.1029
     45 H            -0.7911   -2.5552   -3.3233 H        1 UNL1       0.0652
     46 H            -4.1666   -2.8405   -4.4363 H        1 UNL1       0.1488
     47 H            -3.1912   -0.7320   -5.0373 H        1 UNL1       0.0465
     48 H            -1.5847   -1.3985   -4.7461 H        1 UNL1       0.0465
     49 H            -1.8536   -1.4096   -7.0820 H        1 UNL1       0.0328
     50 H            -1.9921   -3.0801   -6.5991 H        1 UNL1       0.0328
     51 H            -3.1938   -0.8956   -8.8984 H        1 UNL1       0.0620
     52 H            -5.2679   -1.1384  -10.2107 H        1 UNL1       0.0619
     53 H            -7.0994   -2.6002   -9.3951 H        1 UNL1       0.0646
     54 H            -4.7516   -3.6550   -5.9717 H        1 UNL1       0.0649
     55 H            -0.5026   -4.2828   -5.3153 H        1 UNL1       0.0622
     56 H             1.0669   -6.1104   -5.9088 H        1 UNL1       0.0633
     57 H             2.1952   -7.3891   -4.0673 H        1 UNL1       0.0829
     58 H             0.3713   -5.0991   -1.1620 H        1 UNL1       0.0833
     59 H             0.0840   -2.5566    0.8808 H        1 UNL1       0.0636
     60 H             0.7659   -0.3749    1.7139 H        1 UNL1       0.0625
@<TRIPOS>BOND
     1     1     2    1
     2     2     3    2
     3     2     4    1
     4     4     5   ar
     5     5     6   ar
     6     6     7   ar
     7     7     8    1
     8     8     9   am
     9     9    10    2
    10     9    11    1
    11    11    12   ar
    12    12    13   ar
    13    13    14   ar
    14    14    15   ar
    15    17    18    2
    16    17    19   am
    17    19    20    1
    18    20    21    1
    19    21    22    1
    20    22    23   ar
    21    23    24   ar
    22    24    25   ar
    23    25    26   ar
    24    26    27    1
    25    26    28   ar
    26    16    29    1
    27    29    30   ar
    28    30    31   ar
    29    31    32   ar
    30    32    33   ar
    31    33    34   ar
    32     7    35   ar
    33    35    36   ar
    34    36     4   ar
    35    15    11   ar
    36    28    22   ar
    37    34    29   ar
    38     1    37    1
    39     1    38    1
    40     1    39    1
    41     5    40    1
    42     6    41    1
    43    12    42    1
    44    13    43    1
    45    14    44    1
    46    16    45    1
    47    19    46    1
    48    20    47    1
    49    20    48    1
    50    21    49    1
    51    21    50    1
    52    23    51    1
    53    24    52    1
    54    25    53    1
    55    28    54    1
    56    30    55    1
    57    31    56    1
    58    32    57    1
    59    34    58    1
    60    35    59    1
    61    36    60    1
    62    16    17    1
    63    16     8    1
@<TRIPOS>SUBSTRUCTURE
     1 UNL1        1 
