@<TRIPOS>MOLECULE
*****
   69    72     1     0     0
SMALL
GASTEIGER


@<TRIPOS>ATOM
      1 C             1.6195    2.0267   -0.8793 C.3      1 UNL1      -0.0560
      2 C             0.7699    1.4991   -2.0673 C.3      1 UNL1      -0.0127
      3 C             0.1248    2.7440   -2.7363 C.3      1 UNL1      -0.0560
      4 C             1.7205    0.8425   -3.0972 C.3      1 UNL1      -0.0560
      5 C            -0.2724    0.4543   -1.6083 C.ar     1 UNL1      -0.0419
      6 C             0.0799   -0.5567   -0.7065 C.ar     1 UNL1      -0.0563
      7 C            -0.8104   -1.5778   -0.3801 C.ar     1 UNL1      -0.0400
      8 C            -2.1270   -1.5757   -0.8565 C.ar     1 UNL1       0.0378
      9 N            -3.0734   -2.6307   -0.5111 N.am     1 UNL1      -0.2501
     10 C            -4.0755   -3.0635   -1.3526 C.2      1 UNL1       0.2701
     11 O            -5.1097   -3.4973   -0.8822 O.2      1 UNL1      -0.2679
     12 C            -3.9817   -2.8639   -2.8549 C.ar     1 UNL1       0.1259
     13 C            -2.7693   -2.7584   -3.5528 C.ar     1 UNL1      -0.0312
     14 C            -2.7769   -2.3915   -4.8978 C.ar     1 UNL1      -0.0582
     15 C            -3.9977   -2.1623   -5.5249 C.ar     1 UNL1      -0.0436
     16 C            -5.1692   -2.3670   -4.8015 C.ar     1 UNL1       0.0284
     17 N            -5.1702   -2.7254   -3.4988 N.ar     1 UNL1      -0.2503
     18 C            -3.0542   -3.1933    0.8841 C.3      1 UNL1       0.1338
     19 C            -2.5968   -2.1992    1.9598 C.2      1 UNL1       0.2385
     20 O            -1.4990   -2.2543    2.4760 O.2      1 UNL1      -0.2734
     21 N            -3.3525   -1.1062    2.2052 N.am     1 UNL1      -0.3132
     22 C            -4.7802   -1.1595    2.5346 C.3      1 UNL1       0.0156
     23 C            -5.0019   -1.5611    4.0153 C.3      1 UNL1      -0.0120
     24 C            -4.4950   -0.5504    5.0495 C.ar     1 UNL1      -0.0432
     25 C            -5.3974    0.0523    5.9329 C.ar     1 UNL1      -0.0584
     26 C            -4.9516    0.9479    6.9056 C.ar     1 UNL1      -0.0588
     27 C            -3.5983    1.2625    7.0000 C.ar     1 UNL1      -0.0264
     28 C            -2.6925    0.6614    6.1321 C.ar     1 UNL1       0.1237
     29 F            -1.3842    0.9576    6.2227 F        1 UNL1      -0.2055
     30 C            -3.1318   -0.2525    5.1767 C.ar     1 UNL1      -0.0232
     31 C            -2.2960   -4.5266    0.9936 C.ar     1 UNL1       0.0002
     32 C            -1.6624   -5.1358   -0.0979 C.ar     1 UNL1      -0.0534
     33 C            -0.9920   -6.3425    0.0885 C.ar     1 UNL1      -0.0433
     34 C            -0.9698   -6.9167    1.3574 C.ar     1 UNL1       0.0276
     35 N            -1.5902   -6.3595    2.4196 N.ar     1 UNL1      -0.2629
     36 C            -2.2431   -5.1910    2.2251 C.ar     1 UNL1       0.0330
     37 C            -2.5018   -0.5150   -1.6923 C.ar     1 UNL1      -0.0400
     38 C            -1.5773    0.4358   -2.1158 C.ar     1 UNL1      -0.0563
     39 H             2.2793    2.8370   -1.2010 H        1 UNL1       0.0238
     40 H             2.2580    1.2477   -0.4589 H        1 UNL1       0.0238
     41 H             0.9762    2.4117   -0.0846 H        1 UNL1       0.0238
     42 H             0.8753    3.5085   -2.9523 H        1 UNL1       0.0238
     43 H            -0.3494    2.4859   -3.6860 H        1 UNL1       0.0238
     44 H            -0.6281    3.1895   -2.0812 H        1 UNL1       0.0238
     45 H             2.2374   -0.0148   -2.6591 H        1 UNL1       0.0238
     46 H             1.1615    0.4894   -3.9673 H        1 UNL1       0.0238
     47 H             2.4759    1.5524   -3.4435 H        1 UNL1       0.0238
     48 H             1.0721   -0.5846   -0.2661 H        1 UNL1       0.0621
     49 H            -0.4573   -2.3726    0.2687 H        1 UNL1       0.0636
     50 H            -1.8190   -2.9369   -3.0566 H        1 UNL1       0.0640
     51 H            -1.8450   -2.2652   -5.4426 H        1 UNL1       0.0619
     52 H            -4.0380   -1.8377   -6.5621 H        1 UNL1       0.0633
     53 H            -6.1476   -2.2089   -5.2518 H        1 UNL1       0.0830
     54 H            -4.0798   -3.4204    1.1767 H        1 UNL1       0.0652
     55 H            -2.8727   -0.3745    2.7062 H        1 UNL1       0.1488
     56 H            -5.2114   -0.1690    2.3646 H        1 UNL1       0.0465
     57 H            -5.2945   -1.8662    1.8793 H        1 UNL1       0.0465
     58 H            -6.0726   -1.7203    4.1632 H        1 UNL1       0.0328
     59 H            -4.5244   -2.5263    4.2006 H        1 UNL1       0.0328
     60 H            -6.4573   -0.1843    5.8783 H        1 UNL1       0.0620
     61 H            -5.6605    1.4008    7.5944 H        1 UNL1       0.0619
     62 H            -3.2491    1.9651    7.7531 H        1 UNL1       0.0646
     63 H            -2.3941   -0.7310    4.5411 H        1 UNL1       0.0649
     64 H            -1.6786   -4.6909   -1.0881 H        1 UNL1       0.0622
     65 H            -0.4902   -6.8296   -0.7439 H        1 UNL1       0.0633
     66 H            -0.4463   -7.8524    1.5456 H        1 UNL1       0.0829
     67 H            -2.7232   -4.7762    3.1095 H        1 UNL1       0.0833
     68 H            -3.5114   -0.4538   -2.0900 H        1 UNL1       0.0636
     69 H            -1.9027    1.1574   -2.8581 H        1 UNL1       0.0621
@<TRIPOS>BOND
     1     1     2    1
     2     2     3    1
     3     2     4    1
     4     2     5    1
     5     5     6   ar
     6     6     7   ar
     7     7     8   ar
     8     8     9    1
     9     9    10   am
    10    10    11    2
    11    10    12    1
    12    12    13   ar
    13    13    14   ar
    14    14    15   ar
    15    15    16   ar
    16    16    17   ar
    17    19    20    2
    18    19    21   am
    19    21    22    1
    20    22    23    1
    21    23    24    1
    22    24    25   ar
    23    25    26   ar
    24    26    27   ar
    25    27    28   ar
    26    28    29    1
    27    28    30   ar
    28    18    31    1
    29    31    32   ar
    30    32    33   ar
    31    33    34   ar
    32    34    35   ar
    33    35    36   ar
    34     8    37   ar
    35    37    38   ar
    36    38     5   ar
    37    17    12   ar
    38    30    24   ar
    39    36    31   ar
    40     1    39    1
    41     1    40    1
    42     1    41    1
    43     3    42    1
    44     3    43    1
    45     3    44    1
    46     4    45    1
    47     4    46    1
    48     4    47    1
    49     6    48    1
    50     7    49    1
    51    13    50    1
    52    14    51    1
    53    15    52    1
    54    16    53    1
    55    18    54    1
    56    21    55    1
    57    22    56    1
    58    22    57    1
    59    23    58    1
    60    23    59    1
    61    25    60    1
    62    26    61    1
    63    27    62    1
    64    30    63    1
    65    32    64    1
    66    33    65    1
    67    34    66    1
    68    36    67    1
    69    37    68    1
    70    38    69    1
    71    18    19    1
    72    18     9    1
@<TRIPOS>SUBSTRUCTURE
     1 UNL1        1 
