@<TRIPOS>MOLECULE
*****
   65    68     1     0     0
SMALL
GASTEIGER


@<TRIPOS>ATOM
      1 C             1.4941    2.1975   -0.6720 C.3      1 UNL1      -0.0428
      2 C             1.5306    1.1911   -1.8506 C.3      1 UNL1       0.0766
      3 C             3.0107    0.7893   -2.0727 C.3      1 UNL1      -0.0428
      4 C             1.0265    1.8804   -3.0585 C.1      1 UNL1       0.0734
      5 N             0.6375    2.4366   -3.9689 N.1      1 UNL1      -0.1957
      6 C             0.6659   -0.0594   -1.6052 C.ar     1 UNL1      -0.0279
      7 C             0.7314   -1.1371   -2.4875 C.ar     1 UNL1      -0.0553
      8 C            -0.0917   -2.2452   -2.3314 C.ar     1 UNL1      -0.0399
      9 C            -1.0315   -2.3419   -1.2937 C.ar     1 UNL1       0.0379
     10 N            -1.9777   -3.4685   -1.1977 N.am     1 UNL1      -0.2488
     11 C            -2.9477   -3.5911   -0.2217 C.2      1 UNL1       0.2870
     12 O            -3.1729   -4.6766    0.2802 O.2      1 UNL1      -0.2662
     13 C            -3.6582   -2.3886    0.2879 C.ar     1 UNL1       0.1896
     14 C            -3.8076   -1.1645   -0.3233 C.ar     1 UNL1      -0.0113
     15 C            -4.2639   -0.2851    0.6955 C.ar     1 UNL1      -0.0231
     16 C            -4.4013   -1.0666    1.8080 C.ar     1 UNL1       0.0928
     17 O            -4.1593   -2.3999    1.5761 O.2      1 UNL1      -0.4583
     18 C            -1.6585   -4.7279   -1.9676 C.3      1 UNL1       0.1338
     19 C            -1.8495   -4.5885   -3.4972 C.2      1 UNL1       0.2385
     20 O            -0.9485   -4.6961   -4.3038 O.2      1 UNL1      -0.2734
     21 N            -3.0713   -4.4031   -4.0441 N.am     1 UNL1      -0.3132
     22 C            -4.3119   -3.9080   -3.4462 C.3      1 UNL1       0.0156
     23 C            -4.4821   -2.3797   -3.6315 C.3      1 UNL1      -0.0120
     24 C            -4.7647   -1.8560   -5.0474 C.ar     1 UNL1      -0.0432
     25 C            -5.6492   -0.7811   -5.2011 C.ar     1 UNL1      -0.0584
     26 C            -5.8783   -0.2132   -6.4550 C.ar     1 UNL1      -0.0588
     27 C            -5.2286   -0.7147   -7.5791 C.ar     1 UNL1      -0.0264
     28 C            -4.3483   -1.7816   -7.4401 C.ar     1 UNL1       0.1237
     29 F            -3.7096   -2.2654   -8.5197 F        1 UNL1      -0.2055
     30 C            -4.1085   -2.3420   -6.1878 C.ar     1 UNL1      -0.0232
     31 C            -0.3094   -5.3606   -1.5346 C.ar     1 UNL1       0.0002
     32 C             0.4042   -6.2579   -2.3440 C.ar     1 UNL1      -0.0534
     33 C             1.6611   -6.7033   -1.9453 C.ar     1 UNL1      -0.0433
     34 C             2.1613   -6.2990   -0.7121 C.ar     1 UNL1       0.0276
     35 N             1.4595   -5.5130    0.1309 N.ar     1 UNL1      -0.2629
     36 C             0.2486   -5.0702   -0.2792 C.ar     1 UNL1       0.0330
     37 C            -0.9305   -1.3471   -0.3069 C.ar     1 UNL1      -0.0399
     38 C            -0.1701   -0.1969   -0.4943 C.ar     1 UNL1      -0.0553
     39 H             1.7948    1.7119    0.2596 H        1 UNL1       0.0248
     40 H             2.1748    3.0340   -0.8473 H        1 UNL1       0.0248
     41 H             0.4909    2.6120   -0.5390 H        1 UNL1       0.0248
     42 H             3.3598    0.1554   -1.2541 H        1 UNL1       0.0248
     43 H             3.1442    0.2396   -3.0075 H        1 UNL1       0.0248
     44 H             3.6547    1.6704   -2.1211 H        1 UNL1       0.0248
     45 H             1.4201   -1.1251   -3.3277 H        1 UNL1       0.0621
     46 H             0.0624   -3.0358   -3.0421 H        1 UNL1       0.0636
     47 H            -3.4985   -0.8660   -1.3165 H        1 UNL1       0.0657
     48 H            -4.3799    0.7912    0.6208 H        1 UNL1       0.0649
     49 H            -4.6370   -0.8268    2.8390 H        1 UNL1       0.1029
     50 H            -2.4170   -5.4790   -1.7338 H        1 UNL1       0.0652
     51 H            -3.0780   -4.3964   -5.0517 H        1 UNL1       0.1488
     52 H            -5.1499   -4.4202   -3.9265 H        1 UNL1       0.0465
     53 H            -4.3360   -4.1590   -2.3850 H        1 UNL1       0.0465
     54 H            -5.3021   -2.0698   -2.9784 H        1 UNL1       0.0328
     55 H            -3.5848   -1.8818   -3.2632 H        1 UNL1       0.0328
     56 H            -6.1547   -0.3616   -4.3344 H        1 UNL1       0.0620
     57 H            -6.5570    0.6302   -6.5557 H        1 UNL1       0.0619
     58 H            -5.3988   -0.2705   -8.5571 H        1 UNL1       0.0646
     59 H            -3.3877   -3.1463   -6.1309 H        1 UNL1       0.0649
     60 H             0.0132   -6.6072   -3.2939 H        1 UNL1       0.0622
     61 H             2.2463   -7.3524   -2.5923 H        1 UNL1       0.0633
     62 H             3.1434   -6.6177   -0.3679 H        1 UNL1       0.0829
     63 H            -0.2688   -4.4460    0.4457 H        1 UNL1       0.0833
     64 H            -1.4663   -1.4162    0.6313 H        1 UNL1       0.0636
     65 H            -0.2475    0.5827    0.2564 H        1 UNL1       0.0621
@<TRIPOS>BOND
     1     1     2    1
     2     2     3    1
     3     2     4    1
     4     4     5    3
     5     2     6    1
     6     6     7   ar
     7     7     8   ar
     8     8     9   ar
     9     9    10    1
    10    10    11   am
    11    11    12    2
    12    11    13    1
    13    13    14   ar
    14    14    15   ar
    15    15    16   ar
    16    16    17   ar
    17    10    18    1
    18    18    19    1
    19    19    20    2
    20    19    21   am
    21    21    22    1
    22    22    23    1
    23    23    24    1
    24    24    25   ar
    25    25    26   ar
    26    26    27   ar
    27    27    28   ar
    28    28    29    1
    29    28    30   ar
    30    18    31    1
    31    31    32   ar
    32    32    33   ar
    33    33    34   ar
    34    34    35   ar
    35    35    36   ar
    36     9    37   ar
    37    37    38   ar
    38    38     6   ar
    39    17    13   ar
    40    30    24   ar
    41    36    31   ar
    42     1    39    1
    43     1    40    1
    44     1    41    1
    45     3    42    1
    46     3    43    1
    47     3    44    1
    48     7    45    1
    49     8    46    1
    50    14    47    1
    51    15    48    1
    52    16    49    1
    53    18    50    1
    54    21    51    1
    55    22    52    1
    56    22    53    1
    57    23    54    1
    58    23    55    1
    59    25    56    1
    60    26    57    1
    61    27    58    1
    62    30    59    1
    63    32    60    1
    64    33    61    1
    65    34    62    1
    66    36    63    1
    67    37    64    1
    68    38    65    1
@<TRIPOS>SUBSTRUCTURE
     1 UNL1        1 
