@<TRIPOS>MOLECULE
*****
   55    58     1     0     0
SMALL
GASTEIGER


@<TRIPOS>ATOM
      1 O            -1.1063   -2.0881   -2.5813 O.2      1 UNL1      -0.2734
      2 C            -2.3158   -2.0599   -2.4790 C.2      1 UNL1       0.2385
      3 N            -3.0500   -2.4261   -3.5628 N.am     1 UNL1      -0.3132
      4 C            -4.4470   -2.9014   -3.6179 C.3      1 UNL1       0.0156
      5 C            -5.2444   -2.3191   -4.7984 C.3      1 UNL1      -0.0120
      6 C            -4.6804   -2.6575   -6.1720 C.ar     1 UNL1      -0.0445
      7 C            -4.3460   -3.9724   -6.5119 C.ar     1 UNL1      -0.0584
      8 C            -3.8608   -4.2694   -7.7844 C.ar     1 UNL1      -0.0601
      9 C            -3.7198   -3.2578   -8.7315 C.ar     1 UNL1      -0.0434
     10 C            -4.0630   -1.9485   -8.4020 C.ar     1 UNL1       0.0412
     11 CL           -3.9096   -0.6928   -9.5815 Cl       1 UNL1      -0.0835
     12 C            -4.5396   -1.6484   -7.1273 C.ar     1 UNL1      -0.0402
     13 C            -2.9992   -1.6837   -1.1584 C.3      1 UNL1       0.1338
     14 C            -2.3550   -2.3949    0.0370 C.ar     1 UNL1       0.0002
     15 C            -2.2113   -1.8107    1.2996 C.ar     1 UNL1      -0.0534
     16 C            -1.6798   -2.5615    2.3441 C.ar     1 UNL1      -0.0433
     17 C            -1.3383   -3.8919    2.1157 C.ar     1 UNL1       0.0276
     18 N            -1.5056   -4.4910    0.9178 N.ar     1 UNL1      -0.2629
     19 C            -2.0045   -3.7450   -0.0922 C.ar     1 UNL1       0.0330
     20 N            -3.2753   -0.2114   -1.0171 N.am     1 UNL1      -0.2488
     21 C            -4.4954    0.3590   -1.2879 C.2      1 UNL1       0.2870
     22 O            -4.5351    1.5231   -1.6433 O.2      1 UNL1      -0.2662
     23 C            -5.7476   -0.4415   -1.2123 C.ar     1 UNL1       0.1896
     24 C            -6.0131   -1.5495   -0.4366 C.ar     1 UNL1      -0.0113
     25 C            -7.3211   -1.9704   -0.7946 C.ar     1 UNL1      -0.0231
     26 C            -7.7581   -1.0454   -1.6993 C.ar     1 UNL1       0.0928
     27 O            -6.8518   -0.0406   -1.9415 O.2      1 UNL1      -0.4583
     28 C            -2.1409    0.6658   -0.8004 C.ar     1 UNL1       0.0379
     29 C            -1.1232    0.8152   -1.7499 C.ar     1 UNL1      -0.0388
     30 C            -0.0086    1.6073   -1.4804 C.ar     1 UNL1      -0.0416
     31 C             0.0728    2.3106   -0.2821 C.ar     1 UNL1       0.0411
     32 CL            1.4675    3.2737    0.0646 Cl       1 UNL1      -0.0835
     33 C            -0.9792    2.2525    0.6274 C.ar     1 UNL1      -0.0416
     34 C            -2.0835    1.4437    0.3629 C.ar     1 UNL1      -0.0388
     35 H            -2.5163   -2.6288   -4.3955 H        1 UNL1       0.1488
     36 H            -4.4250   -3.9913   -3.6977 H        1 UNL1       0.0465
     37 H            -5.0051   -2.6585   -2.7200 H        1 UNL1       0.0465
     38 H            -6.2694   -2.6928   -4.7415 H        1 UNL1       0.0328
     39 H            -5.3025   -1.2348   -4.6724 H        1 UNL1       0.0328
     40 H            -4.4664   -4.7771   -5.7911 H        1 UNL1       0.0620
     41 H            -3.5990   -5.2930   -8.0407 H        1 UNL1       0.0618
     42 H            -3.3489   -3.4922   -9.7263 H        1 UNL1       0.0632
     43 H            -4.8122   -0.6240   -6.8837 H        1 UNL1       0.0635
     44 H            -3.9315   -2.1994   -1.2324 H        1 UNL1       0.0652
     45 H            -2.5243   -0.7946    1.4956 H        1 UNL1       0.0622
     46 H            -1.5475   -2.1198    3.3285 H        1 UNL1       0.0633
     47 H            -0.9332   -4.5165    2.9092 H        1 UNL1       0.0829
     48 H            -2.1401   -4.2766   -1.0325 H        1 UNL1       0.0833
     49 H            -5.3672   -2.0441    0.2808 H        1 UNL1       0.0657
     50 H            -7.8473   -2.8463   -0.4291 H        1 UNL1       0.0649
     51 H            -8.6866   -0.9525   -2.2511 H        1 UNL1       0.1029
     52 H            -1.1843    0.3241   -2.7142 H        1 UNL1       0.0637
     53 H             0.7957    1.6757   -2.2090 H        1 UNL1       0.0633
     54 H            -0.9366    2.8305    1.5474 H        1 UNL1       0.0633
     55 H            -2.8988    1.4125    1.0814 H        1 UNL1       0.0637
@<TRIPOS>BOND
     1     1     2    2
     2     2     3   am
     3     3     4    1
     4     4     5    1
     5     5     6    1
     6     6     7   ar
     7     7     8   ar
     8     8     9   ar
     9     9    10   ar
    10    10    11    1
    11    10    12   ar
    12     2    13    1
    13    13    14    1
    14    14    15   ar
    15    15    16   ar
    16    16    17   ar
    17    17    18   ar
    18    18    19   ar
    19    13    20    1
    20    20    21   am
    21    21    22    2
    22    21    23    1
    23    23    24   ar
    24    24    25   ar
    25    25    26   ar
    26    26    27   ar
    27    20    28    1
    28    28    29   ar
    29    29    30   ar
    30    30    31   ar
    31    31    32    1
    32    31    33   ar
    33    33    34   ar
    34    12     6   ar
    35    19    14   ar
    36    27    23   ar
    37    34    28   ar
    38     3    35    1
    39     4    36    1
    40     4    37    1
    41     5    38    1
    42     5    39    1
    43     7    40    1
    44     8    41    1
    45     9    42    1
    46    12    43    1
    47    13    44    1
    48    15    45    1
    49    16    46    1
    50    17    47    1
    51    19    48    1
    52    24    49    1
    53    25    50    1
    54    26    51    1
    55    29    52    1
    56    30    53    1
    57    33    54    1
    58    34    55    1
@<TRIPOS>SUBSTRUCTURE
     1 UNL1        1 
