lig_CAT-4l
     RDKit          3D

 44 47  0  0  0  0  0  0  0  0999 V2000
   13.4100   -2.5300   -0.8600 C   0  0  0  0  0  0  0  0  0  0  0  0
   15.3600   -2.5400    0.5300 N   0  0  0  0  0  0  0  0  0  0  0  0
   12.6400   -2.4100   -1.8000 O   0  0  0  0  0  0  0  0  0  0  0  0
   14.9600   -2.7100   -0.9300 C   0  0  1  0  0  0  0  0  0  0  0  0
   13.0500   -2.4800    0.4700 N   0  0  0  0  0  0  0  0  0  0  0  0
   14.2600   -2.4900    1.2600 C   0  0  0  0  0  0  0  0  0  0  0  0
   14.2500   -2.3600    2.6000 N   0  0  0  0  0  0  0  0  0  0  0  0
   11.6600   -2.3300    0.9300 C   0  0  0  0  0  0  0  0  0  0  0  0
   15.7300    4.0400   -0.2700 N   0  0  0  0  0  0  0  0  0  0  0  0
   15.2600   -4.1300   -1.4300 C   0  0  0  0  0  0  0  0  0  0  0  0
   16.4000   -4.8000   -1.0100 C   0  0  0  0  0  0  0  0  0  0  0  0
   16.6600   -6.1100   -1.4200 C   0  0  0  0  0  0  0  0  0  0  0  0
   15.7800   -6.7500   -2.2600 C   0  0  0  0  0  0  0  0  0  0  0  0
   14.6500   -6.0900   -2.7100 C   0  0  0  0  0  0  0  0  0  0  0  0
   14.3900   -4.7900   -2.3000 C   0  0  0  0  0  0  0  0  0  0  0  0
   15.6100   -1.5800   -1.7500 C   0  0  0  0  0  0  0  0  0  0  0  0
   16.4600   -1.8600   -2.8100 C   0  0  0  0  0  0  0  0  0  0  0  0
   16.9900   -0.8400   -3.5800 C   0  0  0  0  0  0  0  0  0  0  0  0
   16.6900    0.4800   -3.2800 C   0  0  0  0  0  0  0  0  0  0  0  0
   15.8600    0.7900   -2.2000 C   0  0  0  0  0  0  0  0  0  0  0  0
   15.3100   -0.2500   -1.4400 C   0  0  0  0  0  0  0  0  0  0  0  0
   14.8900    4.7400   -1.0300 C   0  0  0  0  0  0  0  0  0  0  0  0
   14.6000    5.7300   -0.7000 H   0  0  0  0  0  0  0  0  0  0  0  0
   16.0600    2.8100   -0.6800 C   0  0  0  0  0  0  0  0  0  0  0  0
   15.5700    2.2200   -1.8400 C   0  0  0  0  0  0  0  0  0  0  0  0
   14.7200    2.9900   -2.6200 N   0  0  0  0  0  0  0  0  0  0  0  0
   14.3700    4.2700   -2.2200 C   0  0  0  0  0  0  0  0  0  0  0  0
   13.7000    4.8800   -2.8200 H   0  0  0  0  0  0  0  0  0  0  0  0
   16.7500    2.2300   -0.0700 H   0  0  0  0  0  0  0  0  0  0  0  0
   14.6500   -0.0200   -0.6100 H   0  0  0  0  0  0  0  0  0  0  0  0
   17.1000    1.2800   -3.8900 H   0  0  0  0  0  0  0  0  0  0  0  0
   16.7200   -2.9000   -3.0300 H   0  0  0  0  0  0  0  0  0  0  0  0
   17.6400   -1.0700   -4.4200 H   0  0  0  0  0  0  0  0  0  0  0  0
   13.5100   -4.2700   -2.6700 H   0  0  0  0  0  0  0  0  0  0  0  0
   17.5500   -6.6200   -1.0800 H   0  0  0  0  0  0  0  0  0  0  0  0
   13.9600   -6.5900   -3.3900 H   0  0  0  0  0  0  0  0  0  0  0  0
   15.9700   -7.7800   -2.5800 H   0  0  0  0  0  0  0  0  0  0  0  0
   17.1100   -4.3000   -0.3500 H   0  0  0  0  0  0  0  0  0  0  0  0
   13.3700   -2.2900    3.0900 H   0  0  0  0  0  0  0  0  0  0  0  0
   15.1200   -2.3300    3.1100 H   0  0  0  0  0  0  0  0  0  0  0  0
   11.3300   -1.3100    0.7400 H   0  0  0  0  0  0  0  0  0  0  0  0
   11.6100   -2.5500    1.9900 H   0  0  0  0  0  0  0  0  0  0  0  0
   11.0300   -3.0300    0.3800 H   0  0  0  0  0  0  0  0  0  0  0  0
   16.2644   -2.4672    0.9738 H   0  0  0  0  0  0  0  0  0  0  0  0
  1  3  2  0
  1  4  1  0
  1  5  1  0
  2  4  1  0
  2  6  2  0
  2 44  1  0
  4 16  1  6
  4 10  1  0
  5  8  1  0
  5  6  1  0
  6  7  1  0
  7 39  1  0
  7 40  1  0
  8 43  1  0
  8 41  1  0
  8 42  1  0
  9 22  2  0
  9 24  1  0
 10 15  1  0
 10 11  2  0
 11 12  1  0
 11 38  1  0
 12 13  2  0
 12 35  1  0
 13 14  1  0
 13 37  1  0
 14 36  1  0
 14 15  2  0
 15 34  1  0
 16 17  2  0
 16 21  1  0
 17 18  1  0
 17 32  1  0
 18 33  1  0
 18 19  2  0
 19 31  1  0
 19 20  1  0
 20 25  1  0
 20 21  2  0
 21 30  1  0
 22 27  1  0
 22 23  1  0
 24 25  2  0
 24 29  1  0
 25 26  1  0
 26 27  2  0
 27 28  1  0
M  CHG  1   2   1
M  END
>  <s_m_entry_id>  (1) 
8

>  <s_m_entry_name>  (1) 
lig_CAT-4l.1

>  <s_m_Source_Path>  (1) 
C:\Users\dhahn3\Downloads\bace

>  <s_m_Source_File>  (1) 
lig_CAT-4l.sdf

>  <i_m_Source_File_Index>  (1) 
1

$$$$
