systems/pde2/lig_49137530/lig_49137530.pdb
 OpenBabel09231909243D

 60 64  0  0  0  0  0  0  0  0999 V2000
   -5.9290   26.6360   18.6310 C   0  0  0  0  0  0  0  0  0  0  0  0
   -5.8930   25.1220   18.8900 C   0  0  0  0  0  0  0  0  0  0  0  0
   -4.5220   24.5000   18.5750 C   0  0  0  0  0  0  0  0  0  0  0  0
   -4.5860   22.9790   18.3390 C   0  0  0  0  0  0  0  0  0  0  0  0
   -3.2900   22.4520   18.0510 O   0  0  0  0  0  0  0  0  0  0  0  0
   -2.3780   22.2610   19.0720 C   0  0  0  0  0  0  0  0  0  0  0  0
   -1.0750   21.9000   18.7190 C   0  0  0  0  0  0  0  0  0  0  0  0
   -0.0960   21.6390   19.6220 N   0  0  0  0  0  0  0  0  0  0  0  0
   -0.4090   21.7310   20.9380 C   0  0  0  0  0  0  0  0  0  0  0  0
   -2.6670   22.3670   20.4430 C   0  0  0  0  0  0  0  0  0  0  0  0
   -1.6780   22.0990   21.3940 C   0  0  0  0  0  0  0  0  0  0  0  0
   -2.0080   22.0870   22.8420 C   0  0  0  0  0  0  0  0  0  0  0  0
   -2.9560   21.3040   23.3160 N   0  0  0  0  0  0  0  0  0  0  0  0
   -2.9530   21.3360   24.6930 N   0  0  0  0  0  0  0  0  0  0  0  0
   -1.9680   22.1870   25.0440 C   0  0  0  0  0  0  0  0  0  0  0  0
   -1.4650   22.5800   26.2920 C   0  0  0  0  0  0  0  0  0  0  0  0
   -1.9850   22.0640   27.6200 C   0  0  0  0  0  0  0  0  0  0  0  0
   -0.4410   23.4620   26.3970 N   0  0  0  0  0  0  0  0  0  0  0  0
   -1.3710   22.7400   23.8950 N   0  0  0  0  0  0  0  0  0  0  0  0
   -0.3900   23.6820   23.9640 C   0  0  0  0  0  0  0  0  0  0  0  0
    0.1480   24.3760   22.8360 C   0  0  0  0  0  0  0  0  0  0  0  0
    1.1600   25.3300   23.0180 C   0  0  0  0  0  0  0  0  0  0  0  0
    1.6270   25.6100   24.3030 C   0  0  0  0  0  0  0  0  0  0  0  0
    1.1020   24.9720   25.4180 C   0  0  0  0  0  0  0  0  0  0  0  0
    0.0820   24.0150   25.2710 C   0  0  0  0  0  0  0  0  0  0  0  0
    1.7590   26.1290   21.8550 C   0  0  0  0  0  0  0  0  0  0  0  0
    2.5760   25.3940   20.8730 N   0  0  0  0  0  0  0  0  0  0  0  0
    3.1300   24.1250   21.3580 C   0  0  0  0  0  0  0  0  0  0  0  0
    4.0170   23.4600   20.2870 C   0  0  0  0  0  0  0  0  0  0  0  0
    5.0680   24.3350   19.8940 O   0  0  0  0  0  0  0  0  0  0  0  0
    4.5860   25.5770   19.3880 C   0  0  0  0  0  0  0  0  0  0  0  0
    3.6570   26.2760   20.4060 C   0  0  0  0  0  0  0  0  0  0  0  0
   -6.9020   27.0580   18.8760 H   0  0  0  0  0  0  0  0  0  0  0  0
   -5.1860   27.1590   19.2330 H   0  0  0  0  0  0  0  0  0  0  0  0
   -5.7330   26.8600   17.5820 H   0  0  0  0  0  0  0  0  0  0  0  0
   -6.6600   24.6380   18.2850 H   0  0  0  0  0  0  0  0  0  0  0  0
   -6.1570   24.9260   19.9300 H   0  0  0  0  0  0  0  0  0  0  0  0
   -3.8260   24.7200   19.3860 H   0  0  0  0  0  0  0  0  0  0  0  0
   -4.1100   24.9780   17.6840 H   0  0  0  0  0  0  0  0  0  0  0  0
   -5.2040   22.7800   17.4660 H   0  0  0  0  0  0  0  0  0  0  0  0
   -5.0820   22.4540   19.1560 H   0  0  0  0  0  0  0  0  0  0  0  0
   -0.7970   21.8030   17.6800 H   0  0  0  0  0  0  0  0  0  0  0  0
    0.3780   21.4800   21.6340 H   0  0  0  0  0  0  0  0  0  0  0  0
   -3.6550   22.6250   20.7890 H   0  0  0  0  0  0  0  0  0  0  0  0
   -1.1880   21.5780   28.1830 H   0  0  0  0  0  0  0  0  0  0  0  0
   -2.3850   22.8830   28.2180 H   0  0  0  0  0  0  0  0  0  0  0  0
   -2.7810   21.3320   27.4770 H   0  0  0  0  0  0  0  0  0  0  0  0
   -0.2280   24.1970   21.8420 H   0  0  0  0  0  0  0  0  0  0  0  0
    2.3980   26.3530   24.4490 H   0  0  0  0  0  0  0  0  0  0  0  0
    1.4530   25.2230   26.4080 H   0  0  0  0  0  0  0  0  0  0  0  0
    2.3490   26.9440   22.2800 H   0  0  0  0  0  0  0  0  0  0  0  0
    0.9370   26.6050   21.3200 H   0  0  0  0  0  0  0  0  0  0  0  0
    2.3100   23.4460   21.5710 H   0  0  0  0  0  0  0  0  0  0  0  0
    3.6880   24.2620   22.2850 H   0  0  0  0  0  0  0  0  0  0  0  0
    3.4210   23.1720   19.4200 H   0  0  0  0  0  0  0  0  0  0  0  0
    4.4400   22.5360   20.6780 H   0  0  0  0  0  0  0  0  0  0  0  0
    4.0710   25.4240   18.4380 H   0  0  0  0  0  0  0  0  0  0  0  0
    5.4400   26.2180   19.1680 H   0  0  0  0  0  0  0  0  0  0  0  0
    4.2610   26.6180   21.2500 H   0  0  0  0  0  0  0  0  0  0  0  0
    3.2330   27.1710   19.9490 H   0  0  0  0  0  0  0  0  0  0  0  0
  1  2  1  0  0  0  0
  1 33  1  0  0  0  0
  1 34  1  0  0  0  0
  1 35  1  0  0  0  0
  2  3  1  0  0  0  0
  2 36  1  0  0  0  0
  2 37  1  0  0  0  0
  3  4  1  0  0  0  0
  3 38  1  0  0  0  0
  3 39  1  0  0  0  0
  4  5  1  0  0  0  0
  4 40  1  0  0  0  0
  4 41  1  0  0  0  0
  5  6  1  0  0  0  0
  6  7  2  0  0  0  0
  6 10  1  0  0  0  0
  7  8  1  0  0  0  0
  7 42  1  0  0  0  0
  8  9  2  0  0  0  0
  9 11  1  0  0  0  0
  9 43  1  0  0  0  0
 10 11  2  0  0  0  0
 10 44  1  0  0  0  0
 11 12  1  0  0  0  0
 12 13  2  0  0  0  0
 12 19  1  0  0  0  0
 13 14  1  0  0  0  0
 14 15  2  0  0  0  0
 15 16  1  0  0  0  0
 15 19  1  0  0  0  0
 16 17  1  0  0  0  0
 16 18  2  0  0  0  0
 17 45  1  0  0  0  0
 17 46  1  0  0  0  0
 17 47  1  0  0  0  0
 18 25  1  0  0  0  0
 19 20  1  0  0  0  0
 20 21  2  0  0  0  0
 20 25  1  0  0  0  0
 21 22  1  0  0  0  0
 21 48  1  0  0  0  0
 22 23  2  0  0  0  0
 22 26  1  0  0  0  0
 23 24  1  0  0  0  0
 23 49  1  0  0  0  0
 24 25  2  0  0  0  0
 24 50  1  0  0  0  0
 26 27  1  0  0  0  0
 26 51  1  0  0  0  0
 26 52  1  0  0  0  0
 27 28  1  0  0  0  0
 27 32  1  0  0  0  0
 28 29  1  0  0  0  0
 28 53  1  0  0  0  0
 28 54  1  0  0  0  0
 29 30  1  0  0  0  0
 29 55  1  0  0  0  0
 29 56  1  0  0  0  0
 30 31  1  0  0  0  0
 31 32  1  0  0  0  0
 31 57  1  0  0  0  0
 31 58  1  0  0  0  0
 32 59  1  0  0  0  0
 32 60  1  0  0  0  0
M  END
$$$$
