# Molecule written by the XED library from Cresset
@<TRIPOS>MOLECULE
CatS_165
   102    106      1
SMALL
USER_CHARGES
@<TRIPOS>ATOM
      1  C1         -4.4861    7.5392   -5.7132 C.ar      1 MOL1       -0.0846
      2  C2         -4.6600    6.7109   -4.6310 C.ar      1 MOL1       -0.0687
      3  C3         -5.8700    6.6380   -3.9732 C.ar      1 MOL1        0.0171
      4  C4         -6.9109    7.4268   -4.4418 C.ar      1 MOL1        0.0480
      5  C5         -6.7442    8.2479   -5.5342 C.ar      1 MOL1       -0.0655
      6  C6         -5.5263    8.3209   -6.1831 C.ar      1 MOL1       -0.0066
      7  C7         -5.3730    9.2152   -7.3200 C.ar      1 MOL1        0.0391
      8  C8         -6.3012    9.5348   -8.3339 C.ar      1 MOL1       -0.0691
      9  C9         -5.6320   10.3810   -9.1234 C.ar      1 MOL1        0.0571
     10  N1         -4.3650   10.6260   -8.6810 N.pl3     1 MOL1       -0.0670
     11  N2         -4.2578    9.8689   -7.5651 N.2       1 MOL1       -0.2943
     12  C10        -3.2820   11.5017   -9.1681 C.3       1 MOL1        0.0979
     13  C11        -3.0352   12.9249   -8.6221 C.3       1 MOL1        0.0191
     14  C12        -2.4581   12.8948   -7.1940 C.3       1 MOL1       -0.0328
     15  N3         -2.1131   14.2738   -6.7859 N.4       1 MOL1       -0.2283
     16  C13        -1.2462   14.9391   -7.7821 C.3       1 MOL1       -0.0630
     17  C14        -0.9279   16.3791   -7.3869 C.3       1 MOL1       -0.0834
     18  C15        -0.3052   16.4250   -5.9978 C.3       1 MOL1       -0.0872
     19  C16        -1.2029   15.7169   -4.9989 C.3       1 MOL1       -0.0834
     20  C17        -1.4792   14.2950   -5.4640 C.3       1 MOL1       -0.0630
     21  O1         -4.2610   13.6691   -8.5962 O.3       1 MOL1       -0.4408
     22  C18        -6.2650   10.9468  -10.3861 C.3       1 MOL1       -0.0166
     23  C19        -7.7958   10.7439  -10.4583 C.3       1 MOL1        0.0808
     24  N4         -8.2500    9.4451   -9.9047 N.am      1 MOL1       -0.4012
     25  C20        -7.7319    9.0718   -8.5741 C.3       1 MOL1        0.1152
     26  C21        -9.1622    8.6351  -10.4912 C.2       1 MOL1        0.4017
     27  O2         -9.1648    7.4181  -10.3569 O.2       1 MOL1       -0.4572
     28  S1         -8.5192    7.4481   -3.6401 S.3       1 MOL1       -0.1783
     29  C26        -9.0882    9.1670   -3.5891 C.3       1 MOL1       -0.0087
     30  C27        -7.9860   10.0771   -3.0060 C.3       1 MOL1       -0.0441
     31  N5         -8.4740   11.0242   -1.9848 N.4       1 MOL1       -0.2284
     32  C28        -9.7342   11.6311   -2.4140 C.3       1 MOL1       -0.0566
     33  C29       -10.2920   12.5449   -1.3271 C.3       1 MOL1       -0.0467
     34  C30        -9.3058   13.6378   -0.9379 C.3       1 MOL1        0.0498
     35  C31        -7.9539   13.0169   -0.6357 C.3       1 MOL1       -0.0467
     36  C32        -7.4939   12.0831   -1.7472 C.3       1 MOL1       -0.0566
     37  C33        -5.9539    5.6899   -2.7788 C.3       1 MOL1        0.4149
     38  F2         -5.8199    6.3782   -1.5789 F         1 MOL1       -0.1514
     39  F3         -7.1847    5.0440   -2.7509 F         1 MOL1       -0.1514
     40  F4         -4.9792    4.6959   -2.7842 F         1 MOL1       -0.1514
     41  H41        -9.7173   14.1889    0.0450 F         1 MOL1       -0.2169
     42  H          -9.8176    9.0193  -11.1326 N.am      1 MOL1       -0.4023
     43  H         -10.3385    8.4887  -11.6079 C.3       1 MOL1        0.0840
     44  H          -9.9130    9.8879  -11.2188 C.3       1 MOL1        0.0840
     45  H         -11.0790    9.0251  -12.4020 C.3       1 MOL1       -0.0998
     46  H          -9.7135    7.7402  -12.3184 C.3       1 MOL1       -0.0998
     47  H         -11.0528   10.2904  -11.0549 C.3       1 MOL1       -0.0998
     48  H          -9.6934   10.4274  -12.2849 C.3       1 MOL1       -0.0998
     49  H          -9.1952   14.5602   -1.9739 H         1 MOL1        0.0735
     50  H1         -2.2380   13.4761   -9.3290 H         1 MOL1        0.0680
     51  H2         -3.5970    7.5731   -6.1660 H         1 MOL1        0.0910
     52  H3         -3.8921    6.1560   -4.3162 H         1 MOL1        0.0908
     53  H4         -7.5099    8.8060   -5.8542 H         1 MOL1        0.0929
     54  H5         -2.2557   10.8948   -9.0271 H         1 MOL1        0.0624
     55  H6         -3.4737   11.6018  -10.3480 H         1 MOL1        0.0624
     56  H7         -3.2399   12.3630   -6.4551 H         1 MOL1        0.0549
     57  H8         -1.4850   12.1941   -7.2511 H         1 MOL1        0.0549
     58  H9         -0.2439   14.3010   -7.9562 H         1 MOL1        0.0529
     59  H10        -1.8488   14.9608   -8.8191 H         1 MOL1        0.0529
     60  H11        -0.1581   16.8700   -8.1651 H         1 MOL1        0.0467
     61  H12        -1.9399   17.0230   -7.3742 H         1 MOL1        0.0467
     62  H13        -0.1761   17.5701   -5.6630 H         1 MOL1        0.0460
     63  H14         0.7700   15.8920   -6.0171 H         1 MOL1        0.0460
     64  H15        -2.2421   16.3120   -4.9179 H         1 MOL1        0.0467
     65  H16        -0.6710   15.7250   -3.9250 H         1 MOL1        0.0467
     66  H17        -0.4578   13.6638   -5.4440 H         1 MOL1        0.0529
     67  H18        -2.2313   13.8080   -4.6657 H         1 MOL1        0.0529
     68  H19        -4.1120   14.6071   -8.2649 H         1 MOL1        0.3291
     69  H20        -6.0528   12.1222  -10.4689 H         1 MOL1        0.0516
     70  H21        -5.7720   10.3859  -11.3250 H         1 MOL1        0.0516
     71  H22        -8.1118   10.9422  -11.5962 H         1 MOL1        0.0595
     72  H23        -8.3141   11.5920   -9.7849 H         1 MOL1        0.0595
     73  H24        -8.4470    9.5699   -7.7481 H         1 MOL1        0.0622
     74  H25        -7.7659    7.8781   -8.4602 H         1 MOL1        0.0622
     75  H33       -10.0802    9.2619   -2.9209 H         1 MOL1        0.0553
     76  H34        -9.3422    9.4981   -4.7150 H         1 MOL1        0.0553
     77  H35        -7.1079    9.4010   -2.5439 H         1 MOL1        0.0547
     78  H36        -7.5291   10.7102   -3.9190 H         1 MOL1        0.0547
     79  H37       -10.5092   10.7478   -2.6622 H         1 MOL1        0.0529
     80  H38        -9.5520   12.2628   -3.4192 H         1 MOL1        0.0529
     81  H39       -11.2778   13.0980   -1.7302 H         1 MOL1        0.0497
     82  H40       -10.5781   11.9110   -0.3478 H         1 MOL1        0.0497
     83  H42        -8.0539   12.4062    0.3931 H         1 MOL1        0.0497
     84  H43        -7.1289   13.8769   -0.4889 H         1 MOL1        0.0497
     85  H44        -7.3411   12.6998   -2.7651 H         1 MOL1        0.0529
     86  H45        -6.4350   11.6081   -1.4361 H         1 MOL1        0.0529
     87  H          -2.8879   14.7486   -6.7174 H         1 MOL1        0.1921
     88  H          -8.6154   10.5656   -1.2092 H         1 MOL1        0.1921
     89  H         -11.1048    7.8590  -10.9207 H         1 MOL1        0.0613
     90  H          -9.8745   10.5228  -10.1983 H         1 MOL1        0.0613
     91  H         -11.6426    8.0569  -12.8678 H         1 MOL1        0.0449
     92  H         -10.9058    9.2314  -13.5839 H         1 MOL1        0.0449
     93  H         -12.2666    9.0688  -12.1427 H         1 MOL1        0.0449
     94  H          -8.5131    7.7939  -12.2010 H         1 MOL1        0.0449
     95  H          -9.6972    7.7572  -13.5255 H         1 MOL1        0.0449
     96  H         -10.0039    6.5897  -12.1064 H         1 MOL1        0.0449
     97  H         -11.6991    9.7387  -10.1846 H         1 MOL1        0.0449
     98  H         -11.2092   11.4333  -10.6388 H         1 MOL1        0.0449
     99  H         -11.8182   10.8237  -11.8380 H         1 MOL1        0.0449
    100  H          -8.8327    9.9405  -12.9851 H         1 MOL1        0.0449
    101  H         -10.4225   10.9049  -13.1259 H         1 MOL1        0.0449
    102  H          -9.5904   11.6309  -12.1352 H         1 MOL1        0.0449
@<TRIPOS>BOND
     1      1      2 ar
     2      1      6 ar
     3      2      3 ar
     4      3      4 ar
     5      3     37 1 
     6      4      5 ar
     7      4     28 1 
     8      5      6 ar
     9      6      7 1 
    10      7      8 ar
    11      7     11 ar
    12      8      9 ar
    13      8     25 1 
    14      9     10 ar
    15      9     22 1 
    16     10     11 ar
    17     10     12 1 
    18     12     13 1 
    19     13     14 1 
    20     13     21 1 
    21     14     15 1 
    22     15     16 1 
    23     15     20 1 
    24     16     17 1 
    25     17     18 1 
    26     18     19 1 
    27     19     20 1 
    28     22     23 1 
    29     23     24 1 
    30     24     25 1 
    31     24     26 am
    32     26     27 2 
    33     28     29 1 
    34     29     30 1 
    35     30     31 1 
    36     31     32 1 
    37     31     36 1 
    38     32     33 1 
    39     33     34 1 
    40     34     35 1 
    41     34     41 1 
    42     35     36 1 
    43     37     38 1 
    44     37     39 1 
    45     37     40 1 
    46     42     26 am
    47     43     42 1 
    48     44     42 1 
    49     45     43 1 
    50     46     43 1 
    51     47     44 1 
    52     48     44 1 
    53      1     51 1 
    54      2     52 1 
    55      5     53 1 
    56     12     54 1 
    57     12     55 1 
    58     13     50 1 
    59     14     56 1 
    60     14     57 1 
    61     15     87 1 
    62     16     58 1 
    63     16     59 1 
    64     17     60 1 
    65     17     61 1 
    66     18     62 1 
    67     18     63 1 
    68     19     64 1 
    69     19     65 1 
    70     20     66 1 
    71     20     67 1 
    72     21     68 1 
    73     22     69 1 
    74     22     70 1 
    75     23     71 1 
    76     23     72 1 
    77     25     73 1 
    78     25     74 1 
    79     29     75 1 
    80     29     76 1 
    81     30     77 1 
    82     30     78 1 
    83     31     88 1 
    84     32     79 1 
    85     32     80 1 
    86     33     81 1 
    87     33     82 1 
    88     34     49 1 
    89     35     83 1 
    90     35     84 1 
    91     36     85 1 
    92     36     86 1 
    93     89     43 1 
    94     90     44 1 
    95     91     45 1 
    96     92     45 1 
    97     93     45 1 
    98     94     46 1 
    99     95     46 1 
   100     96     46 1 
   101     97     47 1 
   102     98     47 1 
   103     99     47 1 
   104    100     48 1 
   105    101     48 1 
   106    102     48 1 
@<TRIPOS>SUBSTRUCTURE
     1 MOL1         1 MOLECULE          1 A
