@<TRIPOS>MOLECULE
lig_20669_2qbr
 42 44 0 0 0
SMALL
GASTEIGER

@<TRIPOS>ATOM
      1 O          39.1900   17.5700   12.7200 O.co2   1  LIG1       -0.5463
      2 C          40.3300   17.0500   12.7000 C.2     1  LIG1        0.0789
      3 O          41.1800   17.2200   11.8000 O.co2   1  LIG1       -0.5463
      4 C          40.7500   16.1700   13.8800 C.3     1  LIG1        0.1287
      5 O          42.0900   15.7300   13.7400 O.3     1  LIG1       -0.4839
      6 C          42.5100   14.9200   14.7400 C.ar    1  LIG1        0.1514
      7 C          42.1900   13.5700   14.8700 C.ar    1  LIG1        0.0749
      8 BR         41.1691   12.6116   13.4637 Br      1  LIG1       -0.0453
      9 C          42.6200   12.9300   16.0200 C.ar    1  LIG1        0.0376
     10 C          42.3400   11.5900   16.4800 C.ar    1  LIG1       -0.0084
     11 C          43.3700   10.7600   16.9500 C.ar    1  LIG1       -0.0534
     12 C          43.0900    9.4600   17.3700 C.ar    1  LIG1       -0.0594
     13 C          41.7800    8.9700   17.3100 C.ar    1  LIG1       -0.0408
     14 C          40.7400    9.7900   16.8400 C.ar    1  LIG1        0.0280
     15 N          39.4000    9.3800   16.7700 N.pl3   1  LIG1       -0.3397
     16 C          39.0000    7.9700   16.7100 C.3     1  LIG1        0.0344
     17 C          39.0500    7.4100   15.3000 C.ar    1  LIG1       -0.0304
     18 C          40.2600    7.0600   14.7100 C.ar    1  LIG1       -0.0571
     19 C          40.2900    6.5200   13.4200 C.ar    1  LIG1       -0.0615
     20 C          39.1100    6.3100   12.7200 C.ar    1  LIG1       -0.0617
     21 C          37.8900    6.6600   13.3100 C.ar    1  LIG1       -0.0615
     22 C          37.8500    7.2100   14.5900 C.ar    1  LIG1       -0.0571
     23 C          41.0300   11.0900   16.4500 C.ar    1  LIG1       -0.0326
     24 S          43.6400   14.0300   16.9200 S.2     1  LIG1       -0.0822
     25 C          43.3700   15.3200   15.7700 C.ar    1  LIG1        0.0778
     26 C          44.0500   16.6100   16.0400 C.2     1  LIG1        0.0818
     27 O          43.8800   17.5600   15.2400 O.co2   1  LIG1       -0.5440
     28 O          44.7800   16.7200   17.0500 O.co2   1  LIG1       -0.5440
     29 H          40.6400   16.7200   14.8100 H       1  LIG1        0.0760
     30 H          40.0600   15.3200   13.9300 H       1  LIG1        0.0760
     31 H          44.3800   11.1200   16.9800 H       1  LIG1        0.0624
     32 H          43.8800    8.8300   17.7300 H       1  LIG1        0.0618
     33 H          41.5900    7.9600   17.6400 H       1  LIG1        0.0636
     34 H          38.6600   10.0600   16.8100 H       1  LIG1        0.1464
     35 H          39.6600    7.3800   17.3400 H       1  LIG1        0.0511
     36 H          37.9900    7.8700   17.1200 H       1  LIG1        0.0511
     37 H          41.1900    7.2100   15.2500 H       1  LIG1        0.0621
     38 H          41.2400    6.2700   12.9600 H       1  LIG1        0.0618
     39 H          39.1300    5.8900   11.7300 H       1  LIG1        0.0618
     40 H          36.9700    6.5000   12.7700 H       1  LIG1        0.0618
     41 H          36.9100    7.4700   15.0300 H       1  LIG1        0.0621
     42 H          40.2300   11.7400   16.1100 H       1  LIG1        0.0642
@<TRIPOS>BOND
     1     1     2   ar
     2     2     3   ar
     3     2     4    1
     4     4     5    1
     5     4    29    1
     6     4    30    1
     7     5     6    1
     8     6     7   ar
     9     6    25   ar
    10     7     8    1
    11     7     9   ar
    12     9    10    1
    13     9    24   ar
    14    10    11   ar
    15    10    23   ar
    16    11    12   ar
    17    11    31    1
    18    12    13   ar
    19    12    32    1
    20    13    14   ar
    21    13    33    1
    22    14    15    1
    23    14    23   ar
    24    15    16    1
    25    15    34    1
    26    16    17    1
    27    16    35    1
    28    16    36    1
    29    17    18   ar
    30    17    22   ar
    31    18    19   ar
    32    18    37    1
    33    19    20   ar
    34    19    38    1
    35    20    21   ar
    36    20    39    1
    37    21    22   ar
    38    21    40    1
    39    22    41    1
    40    23    42    1
    41    24    25   ar
    42    25    26    1
    43    26    27   ar
    44    26    28   ar
