@<TRIPOS>MOLECULE
lig_23469
 41 43 0 0 0
SMALL
GASTEIGER

@<TRIPOS>ATOM
      1 O          39.1700   17.5100   12.7000 O.co2   1  LIG1       -0.5463
      2 C          40.3300   17.0300   12.6900 C.2     1  LIG1        0.0789
      3 O          41.2000   17.2700   11.8300 O.co2   1  LIG1       -0.5463
      4 C          40.7300   16.1100   13.8500 C.3     1  LIG1        0.1287
      5 O          42.0900   15.7300   13.7400 O.3     1  LIG1       -0.4839
      6 C          42.5100   14.9200   14.7400 C.ar    1  LIG1        0.1514
      7 C          42.1900   13.5700   14.8700 C.ar    1  LIG1        0.0749
      8 BR         41.1615   12.6142   13.4675 Br      1  LIG1       -0.0453
      9 C          42.6200   12.9300   16.0200 C.ar    1  LIG1        0.0376
     10 C          42.3400   11.5900   16.4800 C.ar    1  LIG1       -0.0084
     11 C          43.3700   10.7600   16.9500 C.ar    1  LIG1       -0.0534
     12 C          43.0900    9.4600   17.3700 C.ar    1  LIG1       -0.0594
     13 C          41.7800    8.9700   17.3100 C.ar    1  LIG1       -0.0404
     14 C          40.7400    9.7900   16.8400 C.ar    1  LIG1        0.0343
     15 N          39.4000    9.3800   16.7700 N.am    1  LIG1       -0.2815
     16 C          38.9700    8.0200   17.0800 C.2     1  LIG1        0.2483
     17 O          39.6100    7.2000   17.7400 O.2     1  LIG1       -0.2699
     18 C          37.5800    7.7000   16.5400 C.ar    1  LIG1        0.0370
     19 C          37.0100    6.4400   16.7200 C.ar    1  LIG1       -0.0496
     20 C          35.7200    6.1700   16.2400 C.ar    1  LIG1       -0.0610
     21 C          34.9900    7.1700   15.6000 C.ar    1  LIG1       -0.0617
     22 C          35.5500    8.4300   15.4200 C.ar    1  LIG1       -0.0610
     23 C          36.8400    8.7000   15.8900 C.ar    1  LIG1       -0.0496
     24 C          41.0300   11.0900   16.4500 C.ar    1  LIG1       -0.0322
     25 S          43.6400   14.0300   16.9200 S.2     1  LIG1       -0.0822
     26 C          43.3700   15.3200   15.7700 C.ar    1  LIG1        0.0778
     27 C          44.0500   16.6100   16.0400 C.2     1  LIG1        0.0818
     28 O          43.8800   17.5600   15.2400 O.co2   1  LIG1       -0.5440
     29 O          44.7800   16.7200   17.0500 O.co2   1  LIG1       -0.5440
     30 H          40.5600   16.6200   14.7900 H       1  LIG1        0.0760
     31 H          40.0700   15.2300   13.8200 H       1  LIG1        0.0760
     32 H          44.3800   11.1200   16.9900 H       1  LIG1        0.0624
     33 H          43.8800    8.8300   17.7400 H       1  LIG1        0.0618
     34 H          41.6000    7.9600   17.6500 H       1  LIG1        0.0636
     35 H          38.7500   10.0600   16.4100 H       1  LIG1        0.1551
     36 H          37.5500    5.6500   17.2300 H       1  LIG1        0.0625
     37 H          35.3000    5.1800   16.3700 H       1  LIG1        0.0618
     38 H          33.9900    6.9600   15.2500 H       1  LIG1        0.0618
     39 H          34.9900    9.2100   14.9300 H       1  LIG1        0.0618
     40 H          37.2700    9.6800   15.7400 H       1  LIG1        0.0625
     41 H          40.2300   11.7400   16.1100 H       1  LIG1        0.0642
@<TRIPOS>BOND
     1     1     2   ar
     2     2     3   ar
     3     2     4    1
     4     4     5    1
     5     4    30    1
     6     4    31    1
     7     5     6    1
     8     6     7   ar
     9     6    26   ar
    10     7     8    1
    11     7     9   ar
    12     9    10    1
    13     9    25   ar
    14    10    11   ar
    15    10    24   ar
    16    11    12   ar
    17    11    32    1
    18    12    13   ar
    19    12    33    1
    20    13    14   ar
    21    13    34    1
    22    14    15    1
    23    14    24   ar
    24    15    16   am
    25    15    35    1
    26    16    17    2
    27    16    18    1
    28    18    19   ar
    29    18    23   ar
    30    19    20   ar
    31    19    36    1
    32    20    21   ar
    33    20    37    1
    34    21    22   ar
    35    21    38    1
    36    22    23   ar
    37    22    39    1
    38    23    40    1
    39    24    41    1
    40    25    26   ar
    41    26    27    1
    42    27    28   ar
    43    27    29   ar
