@<TRIPOS>MOLECULE
lig_23470
 42 43 0 0 0
SMALL
GASTEIGER

@<TRIPOS>ATOM
      1 O          39.1700   17.5100   12.7000 O.co2   1  LIG1       -0.5463
      2 C          40.3300   17.0300   12.6900 C.2     1  LIG1        0.0789
      3 O          41.2000   17.2700   11.8300 O.co2   1  LIG1       -0.5463
      4 C          40.7300   16.1100   13.8500 C.3     1  LIG1        0.1287
      5 O          42.0900   15.7300   13.7400 O.3     1  LIG1       -0.4839
      6 C          42.5100   14.9200   14.7400 C.ar    1  LIG1        0.1514
      7 C          42.1900   13.5700   14.8700 C.ar    1  LIG1        0.0749
      8 BR         41.1615   12.6142   13.4675 Br      1  LIG1       -0.0453
      9 C          42.6200   12.9300   16.0200 C.ar    1  LIG1        0.0376
     10 C          42.3400   11.5900   16.4800 C.ar    1  LIG1       -0.0084
     11 C          43.3700   10.7600   16.9500 C.ar    1  LIG1       -0.0534
     12 C          43.0900    9.4600   17.3700 C.ar    1  LIG1       -0.0594
     13 C          41.7800    8.9700   17.3100 C.ar    1  LIG1       -0.0404
     14 C          40.7400    9.7900   16.8400 C.ar    1  LIG1        0.0354
     15 N          39.4000    9.3800   16.7700 N.am    1  LIG1       -0.2695
     16 C          38.9700    8.0200   17.0800 C.2     1  LIG1        0.3041
     17 O          39.6100    7.2000   17.7400 O.2     1  LIG1       -0.2525
     18 N          37.7100    7.7300   16.5900 N.am    1  LIG1       -0.2968
     19 C          41.0300   11.0900   16.4500 C.ar    1  LIG1       -0.0322
     20 S          43.6400   14.0300   16.9200 S.2     1  LIG1       -0.0822
     21 C          43.3700   15.3200   15.7700 C.ar    1  LIG1        0.0778
     22 C          44.0500   16.6100   16.0400 C.2     1  LIG1        0.0818
     23 O          43.8800   17.5600   15.2400 O.co2   1  LIG1       -0.5440
     24 O          44.7800   16.7200   17.0500 O.co2   1  LIG1       -0.5440
     25 H          40.5600   16.6200   14.7900 H       1  LIG1        0.0760
     26 H          40.0700   15.2300   13.8200 H       1  LIG1        0.0760
     27 H          44.3800   11.1200   16.9900 H       1  LIG1        0.0624
     28 H          43.8800    8.8300   17.7400 H       1  LIG1        0.0618
     29 H          41.6000    7.9600   17.6500 H       1  LIG1        0.0636
     30 H          38.7500   10.0600   16.4100 H       1  LIG1        0.1564
     31 H          40.2300   11.7400   16.1100 H       1  LIG1        0.0642
     32 C          37.1000    6.3600   16.8200 C.3     1  LIG1        0.0189
     33 H          37.1900    8.4400   16.0900 H       1  LIG1        0.1505
     34 C          35.6900    6.3100   16.1800 C.3     1  LIG1       -0.0468
     35 C          37.9900    5.2900   16.1700 C.3     1  LIG1       -0.0468
     36 H          37.0100    6.1700   17.8900 H       1  LIG1        0.0493
     37 H          35.2600    5.3200   16.3400 H       1  LIG1        0.0247
     38 H          35.0600    7.0700   16.6400 H       1  LIG1        0.0247
     39 H          35.7800    6.5000   15.1100 H       1  LIG1        0.0247
     40 H          37.5500    4.3000   16.3400 H       1  LIG1        0.0247
     41 H          38.0700    5.4800   15.1000 H       1  LIG1        0.0247
     42 H          38.9800    5.3200   16.6300 H       1  LIG1        0.0247
@<TRIPOS>BOND
     1     1     2   ar
     2     2     3   ar
     3     2     4    1
     4     4     5    1
     5     4    25    1
     6     4    26    1
     7     5     6    1
     8     6     7   ar
     9     6    21   ar
    10     7     8    1
    11     7     9   ar
    12     9    10    1
    13     9    20   ar
    14    10    11   ar
    15    10    19   ar
    16    11    12   ar
    17    11    27    1
    18    12    13   ar
    19    12    28    1
    20    13    14   ar
    21    13    29    1
    22    14    15    1
    23    14    19   ar
    24    15    16   am
    25    15    30    1
    26    16    17    2
    27    16    18   am
    28    18    32    1
    29    18    33    1
    30    19    31    1
    31    20    21   ar
    32    21    22    1
    33    22    23   ar
    34    22    24   ar
    35    32    34    1
    36    32    35    1
    37    32    36    1
    38    34    37    1
    39    34    38    1
    40    34    39    1
    41    35    40    1
    42    35    41    1
    43    35    42    1
