@<TRIPOS>MOLECULE
lig_23466
 29 30 0 0 0
SMALL
GASTEIGER

@<TRIPOS>ATOM
      1 O          39.1700   17.5100   12.7000 O.co2   1  LIG1       -0.5463
      2 C          40.3300   17.0300   12.6900 C.2     1  LIG1        0.0789
      3 O          41.2000   17.2700   11.8300 O.co2   1  LIG1       -0.5463
      4 C          40.7300   16.1100   13.8500 C.3     1  LIG1        0.1287
      5 O          42.0900   15.7300   13.7400 O.3     1  LIG1       -0.4839
      6 C          42.5100   14.9200   14.7400 C.ar    1  LIG1        0.1514
      7 C          42.1900   13.5700   14.8700 C.ar    1  LIG1        0.0749
      8 BR         41.2000   12.6500   13.5200 Br      1  LIG1       -0.0453
      9 C          42.6200   12.9300   16.0200 C.ar    1  LIG1        0.0376
     10 C          42.3400   11.5900   16.4800 C.ar    1  LIG1       -0.0084
     11 C          43.3700   10.7600   16.9500 C.ar    1  LIG1       -0.0534
     12 C          43.0900    9.4600   17.3700 C.ar    1  LIG1       -0.0594
     13 C          41.7800    8.9700   17.3100 C.ar    1  LIG1       -0.0410
     14 C          40.7400    9.7900   16.8400 C.ar    1  LIG1        0.0251
     15 N          39.4000    9.3800   16.7700 N.pl3   1  LIG1       -0.3579
     16 C          41.0300   11.0900   16.4500 C.ar    1  LIG1       -0.0328
     17 S          43.6400   14.0300   16.9200 S.2     1  LIG1       -0.0822
     18 C          43.3700   15.3200   15.7700 C.ar    1  LIG1        0.0778
     19 C          44.0500   16.6100   16.0400 C.2     1  LIG1        0.0818
     20 O          43.8800   17.5600   15.2400 O.co2   1  LIG1       -0.5440
     21 O          44.7800   16.7200   17.0500 O.co2   1  LIG1       -0.5440
     22 H          40.5600   16.6200   14.7900 H       1  LIG1        0.0760
     23 H          40.0700   15.2300   13.8200 H       1  LIG1        0.0760
     24 H          44.3800   11.1200   16.9900 H       1  LIG1        0.0624
     25 H          43.8800    8.8300   17.7400 H       1  LIG1        0.0618
     26 H          41.6000    7.9600   17.6500 H       1  LIG1        0.0636
     27 H          38.7500   10.0600   16.4100 H       1  LIG1        0.1423
     28 H          40.2300   11.7400   16.1100 H       1  LIG1        0.0642
     29 H          39.1400    8.4500   17.0700 H       1  LIG1        0.1423
@<TRIPOS>BOND
     1     1     2   ar
     2     2     3   ar
     3     2     4    1
     4     4     5    1
     5     4    22    1
     6     4    23    1
     7     5     6    1
     8     6     7   ar
     9     6    18   ar
    10     7     8    1
    11     7     9   ar
    12     9    10    1
    13     9    17   ar
    14    10    11   ar
    15    10    16   ar
    16    11    12   ar
    17    11    24    1
    18    12    13   ar
    19    12    25    1
    20    13    14   ar
    21    13    26    1
    22    14    15    1
    23    14    16   ar
    24    15    27    1
    25    15    29    1
    26    16    28    1
    27    17    18   ar
    28    18    19    1
    29    19    20   ar
    30    19    21   ar
