@<TRIPOS>MOLECULE
lig_23472
 42 44 0 0 0
SMALL
GASTEIGER

@<TRIPOS>ATOM
      1 O          39.3400   17.3500   12.2700 O.co2   1  LIG1       -0.5463
      2 C          40.4900   16.9300   12.4900 C.2     1  LIG1        0.0789
      3 O          41.4400   17.2200   11.7500 O.co2   1  LIG1       -0.5463
      4 C          40.7800   16.0500   13.6800 C.3     1  LIG1        0.1287
      5 O          42.1200   15.7300   13.6900 O.3     1  LIG1       -0.4839
      6 C          42.5100   14.9200   14.7400 C.ar    1  LIG1        0.1514
      7 C          42.1900   13.5700   14.8700 C.ar    1  LIG1        0.0749
      8 BR         41.0529   12.6415   13.5347 Br      1  LIG1       -0.0453
      9 C          42.6200   12.9300   16.0200 C.ar    1  LIG1        0.0376
     10 C          42.4000   11.5200   16.4700 C.ar    1  LIG1       -0.0083
     11 C          43.4700   10.7700   16.9400 C.ar    1  LIG1       -0.0534
     12 C          43.2600    9.4600   17.3600 C.ar    1  LIG1       -0.0594
     13 C          41.9900    8.9100   17.3200 C.ar    1  LIG1       -0.0393
     14 C          40.9200    9.6600   16.8500 C.ar    1  LIG1        0.0486
     15 N          39.5800    9.0900   16.8000 N.pl3   1  LIG1       -0.2162
     16 S          39.3800    7.3700   16.6200 S.O2    1  LIG1        0.0723
     17 O          40.6300    6.7300   17.0300 O.2     1  LIG1       -0.1500
     18 O          38.0900    7.0000   17.2200 O.2     1  LIG1       -0.1500
     19 C          39.2200    7.1600   14.8600 C.ar    1  LIG1        0.1087
     20 C          38.0000    7.3800   14.2400 C.ar    1  LIG1       -0.0324
     21 C          37.8600    7.2200   12.8600 C.ar    1  LIG1       -0.0246
     22 C          38.9700    6.8400   12.1100 C.ar    1  LIG1        0.1235
     23 F          38.8500    6.6900   10.7700 F       1  LIG1       -0.2055
     24 C          40.1900    6.6200   12.7300 C.ar    1  LIG1       -0.0246
     25 C          40.3300    6.7800   14.1000 C.ar    1  LIG1       -0.0324
     26 C          41.1200   10.9700   16.4300 C.ar    1  LIG1       -0.0311
     27 S          43.6400   14.0300   16.9200 S.2     1  LIG1       -0.0822
     28 C          43.3700   15.3200   15.7700 C.ar    1  LIG1        0.0778
     29 C          44.0500   16.6100   16.0400 C.2     1  LIG1        0.0818
     30 O          43.8800   17.5600   15.2400 O.co2   1  LIG1       -0.5440
     31 O          44.7800   16.7200   17.0500 O.co2   1  LIG1       -0.5440
     32 H          40.5200   16.5800   14.5900 H       1  LIG1        0.0760
     33 H          40.1900   15.1400   13.6000 H       1  LIG1        0.0760
     34 H          44.4600   11.1900   16.9700 H       1  LIG1        0.0624
     35 H          44.0900    8.8700   17.7300 H       1  LIG1        0.0618
     36 H          41.8200    7.8900   17.6400 H       1  LIG1        0.0636
     37 H          38.7700    9.6800   16.8700 H       1  LIG1        0.1737
     38 H          37.1400    7.6800   14.8300 H       1  LIG1        0.0638
     39 H          36.9100    7.3900   12.3800 H       1  LIG1        0.0647
     40 H          41.0400    6.3300   12.1300 H       1  LIG1        0.0647
     41 H          41.2800    6.6100   14.5800 H       1  LIG1        0.0638
     42 H          40.2900   11.5600   16.0600 H       1  LIG1        0.0643
@<TRIPOS>BOND
     1     1     2   ar
     2     2     3   ar
     3     2     4    1
     4     4     5    1
     5     4    32    1
     6     4    33    1
     7     5     6    1
     8     6     7   ar
     9     6    28   ar
    10     7     8    1
    11     7     9   ar
    12     9    10    1
    13     9    27   ar
    14    10    11   ar
    15    10    26   ar
    16    11    12   ar
    17    11    34    1
    18    12    13   ar
    19    12    35    1
    20    13    14   ar
    21    13    36    1
    22    14    15    1
    23    14    26   ar
    24    15    16    1
    25    15    37    1
    26    16    17    2
    27    16    18    2
    28    16    19    1
    29    19    20   ar
    30    19    25   ar
    31    20    21   ar
    32    20    38    1
    33    21    22   ar
    34    21    39    1
    35    22    23    1
    36    22    24   ar
    37    24    25   ar
    38    24    40    1
    39    25    41    1
    40    26    42    1
    41    27    28   ar
    42    28    29    1
    43    29    30   ar
    44    29    31   ar
