lig_23474
     RDKit          3D

 48 50  0  0  0  0  0  0  0  0999 V2000
   39.1900   17.5700   12.7200 O   0  0  0  0  0  0  0  0  0  0  0  0
   40.3300   17.0500   12.7000 C   0  0  0  0  0  0  0  0  0  0  0  0
   41.1800   17.2200   11.8000 O   0  0  0  0  0  0  0  0  0  0  0  0
   40.7500   16.1700   13.8800 C   0  0  0  0  0  0  0  0  0  0  0  0
   42.0900   15.7300   13.7400 O   0  0  0  0  0  0  0  0  0  0  0  0
   42.5100   14.9200   14.7400 C   0  0  0  0  0  0  0  0  0  0  0  0
   42.1900   13.5700   14.8700 C   0  0  0  0  0  0  0  0  0  0  0  0
   41.1691   12.6116   13.4637 Br  0  0  0  0  0  0  0  0  0  0  0  0
   42.6200   12.9300   16.0200 C   0  0  0  0  0  0  0  0  0  0  0  0
   42.3400   11.5900   16.4800 C   0  0  0  0  0  0  0  0  0  0  0  0
   43.3700   10.7600   16.9500 C   0  0  0  0  0  0  0  0  0  0  0  0
   43.0900    9.4600   17.3700 C   0  0  0  0  0  0  0  0  0  0  0  0
   41.7800    8.9700   17.3100 C   0  0  0  0  0  0  0  0  0  0  0  0
   40.7400    9.7900   16.8400 C   0  0  0  0  0  0  0  0  0  0  0  0
   39.4000    9.3800   16.7700 N   0  0  0  0  0  0  0  0  0  0  0  0
   39.0000    7.9700   16.7100 C   0  0  0  0  0  0  0  0  0  0  0  0
   41.0300   11.0900   16.4500 C   0  0  0  0  0  0  0  0  0  0  0  0
   43.6400   14.0300   16.9200 S   0  0  0  0  0  0  0  0  0  0  0  0
   43.3700   15.3200   15.7700 C   0  0  0  0  0  0  0  0  0  0  0  0
   44.0500   16.6100   16.0400 C   0  0  0  0  0  0  0  0  0  0  0  0
   43.8800   17.5600   15.2400 O   0  0  0  0  0  0  0  0  0  0  0  0
   44.7800   16.7200   17.0500 O   0  0  0  0  0  0  0  0  0  0  0  0
   40.6400   16.7200   14.8100 H   0  0  0  0  0  0  0  0  0  0  0  0
   40.0600   15.3200   13.9300 H   0  0  0  0  0  0  0  0  0  0  0  0
   44.3800   11.1200   16.9800 H   0  0  0  0  0  0  0  0  0  0  0  0
   43.8800    8.8300   17.7300 H   0  0  0  0  0  0  0  0  0  0  0  0
   41.5900    7.9600   17.6400 H   0  0  0  0  0  0  0  0  0  0  0  0
   38.6600   10.0600   16.8100 H   0  0  0  0  0  0  0  0  0  0  0  0
   39.6600    7.3800   17.3400 H   0  0  0  0  0  0  0  0  0  0  0  0
   37.9900    7.8700   17.1200 H   0  0  0  0  0  0  0  0  0  0  0  0
   40.2300   11.7400   16.1100 H   0  0  0  0  0  0  0  0  0  0  0  0
   39.1400    8.2800   14.5900 H   0  0  0  0  0  0  0  0  0  0  0  0
   37.8000    6.0500   13.5700 C   0  0  0  0  0  0  0  0  0  0  0  0
   37.7600    6.6600   14.9700 C   0  0  0  0  0  0  0  0  0  0  0  0
   39.0500    7.4300   15.2900 C   0  0  0  0  0  0  0  0  0  0  0  0
   40.2800    6.5100   15.1300 C   0  0  0  0  0  0  0  0  0  0  0  0
   40.3300    5.9000   13.7200 C   0  0  0  0  0  0  0  0  0  0  0  0
   39.0300    5.1400   13.4000 C   0  0  0  0  0  0  0  0  0  0  0  0
   37.8400    6.8600   12.8100 H   0  0  0  0  0  0  0  0  0  0  0  0
   36.8700    5.4600   13.3700 H   0  0  0  0  0  0  0  0  0  0  0  0
   37.6100    5.8500   15.7300 H   0  0  0  0  0  0  0  0  0  0  0  0
   36.8800    7.3500   15.0600 H   0  0  0  0  0  0  0  0  0  0  0  0
   41.2100    7.1000   15.3200 H   0  0  0  0  0  0  0  0  0  0  0  0
   40.2400    5.7000   15.8900 H   0  0  0  0  0  0  0  0  0  0  0  0
   40.4700    6.7100   12.9600 H   0  0  0  0  0  0  0  0  0  0  0  0
   41.2100    5.2200   13.6300 H   0  0  0  0  0  0  0  0  0  0  0  0
   38.9400    4.2600   14.0900 H   0  0  0  0  0  0  0  0  0  0  0  0
   39.0700    4.7300   12.3700 H   0  0  0  0  0  0  0  0  0  0  0  0
  1  2  2  0
  2  3  1  0
  2  4  1  0
  4  5  1  0
  4 23  1  0
  4 24  1  0
  5  6  1  0
  6  7  1  0
  6 19  2  0
  7  8  1  0
  7  9  2  0
  9 10  1  0
  9 18  1  0
 10 11  2  0
 10 17  1  0
 11 12  1  0
 11 25  1  0
 12 13  2  0
 12 26  1  0
 13 14  1  0
 13 27  1  0
 14 15  1  0
 14 17  2  0
 15 16  1  0
 15 28  1  0
 16 29  1  0
 16 30  1  0
 16 35  1  0
 17 31  1  0
 18 19  1  0
 19 20  1  0
 20 21  2  0
 20 22  1  0
 32 35  1  0
 33 34  1  0
 33 38  1  0
 33 39  1  0
 33 40  1  0
 34 35  1  0
 34 41  1  0
 34 42  1  0
 35 36  1  0
 36 37  1  0
 36 43  1  0
 36 44  1  0
 37 38  1  0
 37 45  1  0
 37 46  1  0
 38 47  1  0
 38 48  1  0
M  CHG  2   3  -1  22  -1
M  END
$$$$
