@<TRIPOS>MOLECULE
lig_23473
 41 43 0 0 0
SMALL
GASTEIGER

@<TRIPOS>ATOM
      1 O          41.1500   17.2200   11.7700 O.co2   1  LIG1       -0.5463
      2 C          40.3300   17.0300   12.6900 C.2     1  LIG1        0.0789
      3 O          39.1700   17.5000   12.7200 O.co2   1  LIG1       -0.5463
      4 C          40.7400   16.1400   13.8700 C.3     1  LIG1        0.1287
      5 O          42.0900   15.7300   13.7400 O.3     1  LIG1       -0.4839
      6 C          42.5100   14.9200   14.7400 C.ar    1  LIG1        0.1514
      7 C          42.1900   13.5700   14.8700 C.ar    1  LIG1        0.0749
      8 BR         41.1691   12.6116   13.4637 Br      1  LIG1       -0.0453
      9 C          42.6200   12.9300   16.0200 C.ar    1  LIG1        0.0376
     10 C          42.3400   11.5900   16.4800 C.ar    1  LIG1       -0.0067
     11 C          43.3700   10.7600   16.9500 C.ar    1  LIG1       -0.0533
     12 C          43.0900    9.4600   17.3700 C.ar    1  LIG1       -0.0577
     13 C          41.7800    8.9700   17.3100 C.ar    1  LIG1       -0.0199
     14 C          40.7400    9.7900   16.8400 C.ar    1  LIG1        0.1216
     15 O          39.4000    9.3800   16.7700 O.3     1  LIG1       -0.4874
     16 C          39.0000    7.9700   16.7100 C.3     1  LIG1        0.1146
     17 C          39.0500    7.4100   15.3000 C.ar    1  LIG1       -0.0104
     18 C          40.2600    7.0600   14.7100 C.ar    1  LIG1       -0.0554
     19 C          40.2900    6.5200   13.4200 C.ar    1  LIG1       -0.0614
     20 C          39.1100    6.3100   12.7200 C.ar    1  LIG1       -0.0617
     21 C          37.8900    6.6600   13.3100 C.ar    1  LIG1       -0.0614
     22 C          37.8500    7.2100   14.5900 C.ar    1  LIG1       -0.0554
     23 C          41.0300   11.0900   16.4500 C.ar    1  LIG1       -0.0117
     24 S          43.6400   14.0300   16.9200 S.2     1  LIG1       -0.0822
     25 C          43.3700   15.3200   15.7700 C.ar    1  LIG1        0.0778
     26 C          44.0500   16.6100   16.0400 C.2     1  LIG1        0.0818
     27 O          43.8800   17.5600   15.2400 O.co2   1  LIG1       -0.5440
     28 O          44.7800   16.7200   17.0500 O.co2   1  LIG1       -0.5440
     29 H          40.6100   16.7000   14.8000 H       1  LIG1        0.0760
     30 H          40.0700   15.2800   13.9000 H       1  LIG1        0.0760
     31 H          44.3800   11.1200   16.9800 H       1  LIG1        0.0624
     32 H          43.8800    8.8300   17.7300 H       1  LIG1        0.0619
     33 H          41.6000    7.9600   17.6400 H       1  LIG1        0.0654
     34 H          39.6600    7.3700   17.3300 H       1  LIG1        0.0748
     35 H          37.9800    7.8600   17.1000 H       1  LIG1        0.0748
     36 H          41.1900    7.2100   15.2400 H       1  LIG1        0.0621
     37 H          41.2400    6.2700   12.9600 H       1  LIG1        0.0618
     38 H          39.1300    5.8800   11.7300 H       1  LIG1        0.0618
     39 H          36.9700    6.5000   12.7700 H       1  LIG1        0.0618
     40 H          36.9100    7.4700   15.0300 H       1  LIG1        0.0621
     41 H          40.2300   11.7300   16.1200 H       1  LIG1        0.0660
@<TRIPOS>BOND
     1     1     2   ar
     2     2     3   ar
     3     2     4    1
     4     4     5    1
     5     4    29    1
     6     4    30    1
     7     5     6    1
     8     6     7   ar
     9     6    25   ar
    10     7     8    1
    11     7     9   ar
    12     9    10    1
    13     9    24   ar
    14    10    11   ar
    15    10    23   ar
    16    11    12   ar
    17    11    31    1
    18    12    13   ar
    19    12    32    1
    20    13    14   ar
    21    13    33    1
    22    14    15    1
    23    14    23   ar
    24    15    16    1
    25    16    17    1
    26    16    34    1
    27    16    35    1
    28    17    18   ar
    29    17    22   ar
    30    18    19   ar
    31    18    36    1
    32    19    20   ar
    33    19    37    1
    34    20    21   ar
    35    20    38    1
    36    21    22   ar
    37    21    39    1
    38    22    40    1
    39    23    41    1
    40    24    25   ar
    41    25    26    1
    42    26    27   ar
    43    26    28   ar
