@<TRIPOS>MOLECULE
lig_23468
 37 38 0 0 0
SMALL
GASTEIGER

@<TRIPOS>ATOM
      1 O          39.1700   17.5100   12.7000 O.co2   1  LIG1       -0.5463
      2 C          40.3300   17.0300   12.6900 C.2     1  LIG1        0.0789
      3 O          41.2000   17.2700   11.8300 O.co2   1  LIG1       -0.5463
      4 C          40.7300   16.1100   13.8500 C.3     1  LIG1        0.1287
      5 O          42.0900   15.7300   13.7400 O.3     1  LIG1       -0.4839
      6 C          42.5100   14.9200   14.7400 C.ar    1  LIG1        0.1514
      7 C          42.1900   13.5700   14.8700 C.ar    1  LIG1        0.0749
      8 BR         41.1615   12.6142   13.4675 Br      1  LIG1       -0.0453
      9 C          42.6200   12.9300   16.0200 C.ar    1  LIG1        0.0376
     10 C          42.3400   11.5900   16.4800 C.ar    1  LIG1       -0.0084
     11 C          43.3700   10.7600   16.9500 C.ar    1  LIG1       -0.0534
     12 C          43.0900    9.4600   17.3700 C.ar    1  LIG1       -0.0594
     13 C          41.7800    8.9700   17.3100 C.ar    1  LIG1       -0.0404
     14 C          40.7400    9.7900   16.8400 C.ar    1  LIG1        0.0340
     15 N          39.4000    9.3800   16.7700 N.am    1  LIG1       -0.2855
     16 C          38.9700    8.0200   17.0800 C.2     1  LIG1        0.2169
     17 O          39.6100    7.2000   17.7400 O.2     1  LIG1       -0.2755
     18 C          37.5600    7.7000   16.5400 C.3     1  LIG1        0.0215
     19 C          41.0300   11.0900   16.4500 C.ar    1  LIG1       -0.0322
     20 S          43.6400   14.0300   16.9200 S.2     1  LIG1       -0.0822
     21 C          43.3700   15.3200   15.7700 C.ar    1  LIG1        0.0778
     22 C          44.0500   16.6100   16.0400 C.2     1  LIG1        0.0818
     23 O          43.8800   17.5600   15.2400 O.co2   1  LIG1       -0.5440
     24 O          44.7800   16.7200   17.0500 O.co2   1  LIG1       -0.5440
     25 H          40.5600   16.6200   14.7900 H       1  LIG1        0.0760
     26 H          40.0700   15.2300   13.8200 H       1  LIG1        0.0760
     27 H          44.3800   11.1200   16.9900 H       1  LIG1        0.0624
     28 H          43.8800    8.8300   17.7400 H       1  LIG1        0.0618
     29 H          41.6000    7.9600   17.6500 H       1  LIG1        0.0636
     30 H          38.7500   10.0600   16.4100 H       1  LIG1        0.1548
     31 H          40.2300   11.7400   16.1100 H       1  LIG1        0.0642
     32 C          36.9400    6.3100   16.7700 C.3     1  LIG1       -0.0570
     33 H          37.0000    8.4700   15.9900 H       1  LIG1        0.0356
     34 H          36.8600    6.1200   17.8400 H       1  LIG1        0.0234
     35 H          38.0000    7.3500   15.6000 H       1  LIG1        0.0356
     36 H          35.9500    6.2700   16.3100 H       1  LIG1        0.0234
     37 H          37.5800    5.5500   16.3100 H       1  LIG1        0.0234
@<TRIPOS>BOND
     1     1     2   ar
     2     2     3   ar
     3     2     4    1
     4     4     5    1
     5     4    25    1
     6     4    26    1
     7     5     6    1
     8     6     7   ar
     9     6    21   ar
    10     7     8    1
    11     7     9   ar
    12     9    10    1
    13     9    20   ar
    14    10    11   ar
    15    10    19   ar
    16    11    12   ar
    17    11    27    1
    18    12    13   ar
    19    12    28    1
    20    13    14   ar
    21    13    29    1
    22    14    15    1
    23    14    19   ar
    24    15    16   am
    25    15    30    1
    26    16    17    2
    27    16    18    1
    28    18    32    1
    29    18    33    1
    30    18    35    1
    31    19    31    1
    32    20    21   ar
    33    21    22    1
    34    22    23   ar
    35    22    24   ar
    36    32    34    1
    37    32    36    1
    38    32    37    1
