lig_23484
     RDKit          3D

 60 63  0  0  0  0  0  0  0  0999 V2000
   41.0400   17.2700   11.8800 O   0  0  0  0  0  0  0  0  0  0  0  0
   40.2500   17.0700   12.8200 C   0  0  0  0  0  0  0  0  0  0  0  0
   39.1300   17.6100   12.9500 O   0  0  0  0  0  0  0  0  0  0  0  0
   40.7000   16.1400   13.9500 C   0  0  0  0  0  0  0  0  0  0  0  0
   42.0500   15.7500   13.7800 O   0  0  0  0  0  0  0  0  0  0  0  0
   42.5100   14.9200   14.7400 C   0  0  0  0  0  0  0  0  0  0  0  0
   42.1900   13.5700   14.8700 C   0  0  0  0  0  0  0  0  0  0  0  0
   42.6200   12.9300   16.0200 C   0  0  0  0  0  0  0  0  0  0  0  0
   42.3600   11.5800   16.4900 C   0  0  0  0  0  0  0  0  0  0  0  0
   43.3800   10.8000   17.0300 C   0  0  0  0  0  0  0  0  0  0  0  0
   43.1300    9.5000   17.4600 C   0  0  0  0  0  0  0  0  0  0  0  0
   41.8500    8.9600   17.3400 C   0  0  0  0  0  0  0  0  0  0  0  0
   40.8100    9.7200   16.7900 C   0  0  0  0  0  0  0  0  0  0  0  0
   39.5000    9.2300   16.6200 N   0  0  0  0  0  0  0  0  0  0  0  0
   39.2600    7.8200   16.3600 C   0  0  0  0  0  0  0  0  0  0  0  0
   37.7400    7.5400   16.3200 C   0  0  0  0  0  0  0  0  0  0  0  0
   37.4100    6.0900   15.9100 C   0  0  0  0  0  0  0  0  0  0  0  0
   38.1200    5.7200   14.6700 N   0  0  0  0  0  0  0  0  0  0  0  0
   37.3800    4.7100   13.5000 S   0  0  0  0  0  0  0  0  0  0  0  0
   38.1900    4.8000   12.2800 O   0  0  0  0  0  0  0  0  0  0  0  0
   35.9400    5.0200   13.4600 O   0  0  0  0  0  0  0  0  0  0  0  0
   37.6100    3.0200   14.2100 C   0  0  0  0  0  0  0  0  0  0  0  0
   37.2200    2.0000   13.1600 C   0  0  0  0  0  0  0  0  0  0  0  0
   35.8900    1.5900   13.0400 C   0  0  0  0  0  0  0  0  0  0  0  0
   35.5300    0.6800   12.0400 C   0  0  0  0  0  0  0  0  0  0  0  0
   36.4900    0.1800   11.1700 C   0  0  0  0  0  0  0  0  0  0  0  0
   37.8300    0.5800   11.3000 C   0  0  0  0  0  0  0  0  0  0  0  0
   38.1900    1.4800   12.2900 C   0  0  0  0  0  0  0  0  0  0  0  0
   39.5800    5.9000   14.6900 C   0  0  0  0  0  0  0  0  0  0  0  0
   39.9400    7.3500   15.0500 C   0  0  0  0  0  0  0  0  0  0  0  0
   41.0800   11.0300   16.3900 C   0  0  0  0  0  0  0  0  0  0  0  0
   43.6400   14.0300   16.9200 S   0  0  0  0  0  0  0  0  0  0  0  0
   43.3700   15.3200   15.7700 C   0  0  0  0  0  0  0  0  0  0  0  0
   44.0500   16.6100   16.0400 C   0  0  0  0  0  0  0  0  0  0  0  0
   43.8800   17.5600   15.2400 O   0  0  0  0  0  0  0  0  0  0  0  0
   44.7800   16.7200   17.0500 O   0  0  0  0  0  0  0  0  0  0  0  0
   40.0500   15.2600   13.9700 H   0  0  0  0  0  0  0  0  0  0  0  0
   40.5800   16.6600   14.9000 H   0  0  0  0  0  0  0  0  0  0  0  0
   44.3800   11.2000   17.1300 H   0  0  0  0  0  0  0  0  0  0  0  0
   43.9200    8.9000   17.9000 H   0  0  0  0  0  0  0  0  0  0  0  0
   41.6700    7.9400   17.6700 H   0  0  0  0  0  0  0  0  0  0  0  0
   38.7500    9.9000   16.7100 H   0  0  0  0  0  0  0  0  0  0  0  0
   39.6900    7.2800   17.2000 H   0  0  0  0  0  0  0  0  0  0  0  0
   37.2900    7.7500   17.2900 H   0  0  0  0  0  0  0  0  0  0  0  0
   37.2700    8.2200   15.6100 H   0  0  0  0  0  0  0  0  0  0  0  0
   37.7000    5.3800   16.6900 H   0  0  0  0  0  0  0  0  0  0  0  0
   36.3300    5.9600   15.7800 H   0  0  0  0  0  0  0  0  0  0  0  0
   38.6500    2.9200   14.5200 H   0  0  0  0  0  0  0  0  0  0  0  0
   37.0000    2.9100   15.1100 H   0  0  0  0  0  0  0  0  0  0  0  0
   35.1300    1.9800   13.7000 H   0  0  0  0  0  0  0  0  0  0  0  0
   34.5000    0.3700   11.9400 H   0  0  0  0  0  0  0  0  0  0  0  0
   36.2200   -0.5100   10.3900 H   0  0  0  0  0  0  0  0  0  0  0  0
   38.5700    0.1900   10.6100 H   0  0  0  0  0  0  0  0  0  0  0  0
   39.2200    1.7800   12.3900 H   0  0  0  0  0  0  0  0  0  0  0  0
   39.9800    5.1900   15.4100 H   0  0  0  0  0  0  0  0  0  0  0  0
   39.9900    5.6200   13.7300 H   0  0  0  0  0  0  0  0  0  0  0  0
   39.6400    8.0100   14.2300 H   0  0  0  0  0  0  0  0  0  0  0  0
   41.0200    7.4400   15.1400 H   0  0  0  0  0  0  0  0  0  0  0  0
   40.3000   11.6600   15.9900 H   0  0  0  0  0  0  0  0  0  0  0  0
   41.6200   13.0800   14.0900 H   0  0  0  0  0  0  0  0  0  0  0  0
  1  2  2  0
  2  3  1  0
  2  4  1  0
  4  5  1  0
  4 37  1  0
  4 38  1  0
  5  6  1  0
  6  7  1  0
  6 33  2  0
  7  8  2  0
  7 60  1  0
  8  9  1  0
  8 32  1  0
  9 10  2  0
  9 31  1  0
 10 11  1  0
 10 39  1  0
 11 12  2  0
 11 40  1  0
 12 13  1  0
 12 41  1  0
 13 14  1  0
 13 31  2  0
 14 15  1  0
 14 42  1  0
 15 16  1  0
 15 30  1  0
 15 43  1  0
 16 17  1  0
 16 44  1  0
 16 45  1  0
 17 18  1  0
 17 46  1  0
 17 47  1  0
 18 19  1  0
 18 29  1  0
 19 20  2  0
 19 21  2  0
 19 22  1  0
 22 23  1  0
 22 48  1  0
 22 49  1  0
 23 24  2  0
 23 28  1  0
 24 25  1  0
 24 50  1  0
 25 26  2  0
 25 51  1  0
 26 27  1  0
 26 52  1  0
 27 28  2  0
 27 53  1  0
 28 54  1  0
 29 30  1  0
 29 55  1  0
 29 56  1  0
 30 57  1  0
 30 58  1  0
 31 59  1  0
 32 33  1  0
 33 34  1  0
 34 35  2  0
 34 36  1  0
M  CHG  2   3  -1  36  -1
M  END
$$$$
