@<TRIPOS>MOLECULE
lig_23485
 63 66 0 0 0
SMALL
GASTEIGER

@<TRIPOS>ATOM
      1 C          41.3800   12.9200   13.7800 C.3     1  LIG1       -0.0351
      2 C          42.1900   13.5700   14.8700 C.ar    1  LIG1        0.0067
      3 C          42.5100   14.9200   14.7400 C.ar    1  LIG1        0.1404
      4 O          42.0700   15.7000   13.7300 O.3     1  LIG1       -0.4847
      5 C          40.7200   16.1400   13.8800 C.3     1  LIG1        0.1287
      6 C          40.3200   17.0600   12.7300 C.2     1  LIG1        0.0789
      7 O          41.1700   17.3100   11.8500 O.co2   1  LIG1       -0.5463
      8 O          39.1400   17.4800   12.7300 O.co2   1  LIG1       -0.5463
      9 C          43.3700   15.3200   15.7700 C.ar    1  LIG1        0.0770
     10 C          44.0500   16.6100   16.0400 C.2     1  LIG1        0.0818
     11 O          43.8800   17.5600   15.2400 O.co2   1  LIG1       -0.5440
     12 O          44.7800   16.7200   17.0500 O.co2   1  LIG1       -0.5440
     13 S          43.6400   14.0300   16.9200 S.2     1  LIG1       -0.0831
     14 C          42.6200   12.9300   16.0200 C.ar    1  LIG1        0.0265
     15 C          42.3600   11.5800   16.4900 C.ar    1  LIG1       -0.0092
     16 C          43.3800   10.8000   17.0300 C.ar    1  LIG1       -0.0534
     17 C          43.1300    9.5000   17.4600 C.ar    1  LIG1       -0.0594
     18 C          41.8500    8.9600   17.3400 C.ar    1  LIG1       -0.0408
     19 C          40.8100    9.7200   16.7900 C.ar    1  LIG1        0.0279
     20 N          39.5000    9.2300   16.6200 N.pl3   1  LIG1       -0.3409
     21 C          39.2600    7.8200   16.3600 C.3     1  LIG1        0.0231
     22 C          37.7400    7.5400   16.3200 C.3     1  LIG1       -0.0201
     23 C          37.4100    6.0900   15.9100 C.3     1  LIG1        0.0218
     24 N          38.1200    5.7200   14.6700 N.3     1  LIG1       -0.1807
     25 S          37.3800    4.7100   13.5000 S.O2    1  LIG1        0.0359
     26 O          38.1900    4.8000   12.2800 O.2     1  LIG1       -0.1577
     27 O          35.9400    5.0200   13.4600 O.2     1  LIG1       -0.1577
     28 C          37.6100    3.0200   14.2100 C.3     1  LIG1        0.1069
     29 C          37.2200    2.0000   13.1600 C.ar    1  LIG1       -0.0250
     30 C          35.8900    1.5900   13.0400 C.ar    1  LIG1       -0.0570
     31 C          35.5300    0.6800   12.0400 C.ar    1  LIG1       -0.0615
     32 C          36.4900    0.1800   11.1700 C.ar    1  LIG1       -0.0617
     33 C          37.8300    0.5800   11.3000 C.ar    1  LIG1       -0.0615
     34 C          38.1900    1.4800   12.2900 C.ar    1  LIG1       -0.0570
     35 C          39.5800    5.9000   14.6900 C.3     1  LIG1        0.0218
     36 C          39.9400    7.3500   15.0500 C.3     1  LIG1       -0.0201
     37 C          41.0800   11.0300   16.3900 C.ar    1  LIG1       -0.0326
     38 H          40.8000   13.6400   13.2200 H       1  LIG1        0.0279
     39 H          42.0300   12.4000   13.0800 H       1  LIG1        0.0279
     40 H          40.6800   12.1900   14.1900 H       1  LIG1        0.0279
     41 H          40.0300   15.3000   13.9000 H       1  LIG1        0.0760
     42 H          40.6200   16.6700   14.8300 H       1  LIG1        0.0760
     43 H          44.3800   11.2000   17.1300 H       1  LIG1        0.0624
     44 H          43.9200    8.9100   17.8900 H       1  LIG1        0.0618
     45 H          41.6700    7.9400   17.6700 H       1  LIG1        0.0636
     46 H          38.7500    9.9100   16.6200 H       1  LIG1        0.1463
     47 H          39.6900    7.2800   17.2000 H       1  LIG1        0.0498
     48 H          37.2900    7.7500   17.2900 H       1  LIG1        0.0296
     49 H          37.2700    8.2200   15.6100 H       1  LIG1        0.0296
     50 H          37.7000    5.3800   16.6900 H       1  LIG1        0.0444
     51 H          36.3300    5.9600   15.7800 H       1  LIG1        0.0444
     52 H          38.6600    2.9100   14.4700 H       1  LIG1        0.0565
     53 H          37.0400    2.9500   15.1400 H       1  LIG1        0.0565
     54 H          35.1400    1.9700   13.7200 H       1  LIG1        0.0621
     55 H          34.5000    0.3700   11.9500 H       1  LIG1        0.0618
     56 H          36.2100   -0.5100   10.3900 H       1  LIG1        0.0618
     57 H          38.5700    0.1800   10.6200 H       1  LIG1        0.0618
     58 H          39.2300    1.7800   12.4000 H       1  LIG1        0.0621
     59 H          39.9800    5.1900   15.4100 H       1  LIG1        0.0444
     60 H          39.9900    5.6200   13.7300 H       1  LIG1        0.0444
     61 H          39.6400    8.0100   14.2300 H       1  LIG1        0.0296
     62 H          41.0200    7.4400   15.1400 H       1  LIG1        0.0296
     63 H          40.3000   11.6600   15.9900 H       1  LIG1        0.0642
@<TRIPOS>BOND
     1     1     2    1
     2     1    38    1
     3     1    39    1
     4     1    40    1
     5     2     3   ar
     6     2    14   ar
     7     3     4    1
     8     3     9   ar
     9     4     5    1
    10     5     6    1
    11     5    41    1
    12     5    42    1
    13     6     7   ar
    14     6     8   ar
    15     9    10    1
    16     9    13   ar
    17    10    11   ar
    18    10    12   ar
    19    13    14   ar
    20    14    15    1
    21    15    16   ar
    22    15    37   ar
    23    16    17   ar
    24    16    43    1
    25    17    18   ar
    26    17    44    1
    27    18    19   ar
    28    18    45    1
    29    19    20    1
    30    19    37   ar
    31    20    21    1
    32    20    46    1
    33    21    22    1
    34    21    36    1
    35    21    47    1
    36    22    23    1
    37    22    48    1
    38    22    49    1
    39    23    24    1
    40    23    50    1
    41    23    51    1
    42    24    25    1
    43    24    35    1
    44    25    26    2
    45    25    27    2
    46    25    28    1
    47    28    29    1
    48    28    52    1
    49    28    53    1
    50    29    30   ar
    51    29    34   ar
    52    30    31   ar
    53    30    54    1
    54    31    32   ar
    55    31    55    1
    56    32    33   ar
    57    32    56    1
    58    33    34   ar
    59    33    57    1
    60    34    58    1
    61    35    36    1
    62    35    59    1
    63    35    60    1
    64    36    61    1
    65    36    62    1
    66    37    63    1
