@<TRIPOS>MOLECULE
lig_23484
 60 63 0 0 0
SMALL
GASTEIGER

@<TRIPOS>ATOM
      1 O          41.0400   17.2700   11.8800 O.co2   1  LIG1       -0.5463
      2 C          40.2500   17.0700   12.8200 C.2     1  LIG1        0.0789
      3 O          39.1300   17.6100   12.9500 O.co2   1  LIG1       -0.5463
      4 C          40.7000   16.1400   13.9500 C.3     1  LIG1        0.1287
      5 O          42.0500   15.7500   13.7800 O.3     1  LIG1       -0.4850
      6 C          42.5100   14.9200   14.7400 C.ar    1  LIG1        0.1375
      7 C          42.1900   13.5700   14.8700 C.ar    1  LIG1       -0.0044
      8 C          42.6200   12.9300   16.0200 C.ar    1  LIG1        0.0236
      9 C          42.3600   11.5800   16.4900 C.ar    1  LIG1       -0.0094
     10 C          43.3800   10.8000   17.0300 C.ar    1  LIG1       -0.0534
     11 C          43.1300    9.5000   17.4600 C.ar    1  LIG1       -0.0594
     12 C          41.8500    8.9600   17.3400 C.ar    1  LIG1       -0.0408
     13 C          40.8100    9.7200   16.7900 C.ar    1  LIG1        0.0279
     14 N          39.5000    9.2300   16.6200 N.pl3   1  LIG1       -0.3409
     15 C          39.2600    7.8200   16.3600 C.3     1  LIG1        0.0231
     16 C          37.7400    7.5400   16.3200 C.3     1  LIG1       -0.0201
     17 C          37.4100    6.0900   15.9100 C.3     1  LIG1        0.0218
     18 N          38.1200    5.7200   14.6700 N.3     1  LIG1       -0.1807
     19 S          37.3800    4.7100   13.5000 S.O2    1  LIG1        0.0359
     20 O          38.1900    4.8000   12.2800 O.2     1  LIG1       -0.1577
     21 O          35.9400    5.0200   13.4600 O.2     1  LIG1       -0.1577
     22 C          37.6100    3.0200   14.2100 C.3     1  LIG1        0.1069
     23 C          37.2200    2.0000   13.1600 C.ar    1  LIG1       -0.0250
     24 C          35.8900    1.5900   13.0400 C.ar    1  LIG1       -0.0570
     25 C          35.5300    0.6800   12.0400 C.ar    1  LIG1       -0.0615
     26 C          36.4900    0.1800   11.1700 C.ar    1  LIG1       -0.0617
     27 C          37.8300    0.5800   11.3000 C.ar    1  LIG1       -0.0615
     28 C          38.1900    1.4800   12.2900 C.ar    1  LIG1       -0.0570
     29 C          39.5800    5.9000   14.6900 C.3     1  LIG1        0.0218
     30 C          39.9400    7.3500   15.0500 C.3     1  LIG1       -0.0201
     31 C          41.0800   11.0300   16.3900 C.ar    1  LIG1       -0.0326
     32 S          43.6400   14.0300   16.9200 S.2     1  LIG1       -0.0833
     33 C          43.3700   15.3200   15.7700 C.ar    1  LIG1        0.0767
     34 C          44.0500   16.6100   16.0400 C.2     1  LIG1        0.0818
     35 O          43.8800   17.5600   15.2400 O.co2   1  LIG1       -0.5440
     36 O          44.7800   16.7200   17.0500 O.co2   1  LIG1       -0.5440
     37 H          40.0500   15.2600   13.9700 H       1  LIG1        0.0760
     38 H          40.5800   16.6600   14.9000 H       1  LIG1        0.0760
     39 H          44.3800   11.2000   17.1300 H       1  LIG1        0.0624
     40 H          43.9200    8.9000   17.9000 H       1  LIG1        0.0618
     41 H          41.6700    7.9400   17.6700 H       1  LIG1        0.0636
     42 H          38.7500    9.9000   16.7100 H       1  LIG1        0.1463
     43 H          39.6900    7.2800   17.2000 H       1  LIG1        0.0498
     44 H          37.2900    7.7500   17.2900 H       1  LIG1        0.0296
     45 H          37.2700    8.2200   15.6100 H       1  LIG1        0.0296
     46 H          37.7000    5.3800   16.6900 H       1  LIG1        0.0444
     47 H          36.3300    5.9600   15.7800 H       1  LIG1        0.0444
     48 H          38.6500    2.9200   14.5200 H       1  LIG1        0.0565
     49 H          37.0000    2.9100   15.1100 H       1  LIG1        0.0565
     50 H          35.1300    1.9800   13.7000 H       1  LIG1        0.0621
     51 H          34.5000    0.3700   11.9400 H       1  LIG1        0.0618
     52 H          36.2200   -0.5100   10.3900 H       1  LIG1        0.0618
     53 H          38.5700    0.1900   10.6100 H       1  LIG1        0.0618
     54 H          39.2200    1.7800   12.3900 H       1  LIG1        0.0621
     55 H          39.9800    5.1900   15.4100 H       1  LIG1        0.0444
     56 H          39.9900    5.6200   13.7300 H       1  LIG1        0.0444
     57 H          39.6400    8.0100   14.2300 H       1  LIG1        0.0296
     58 H          41.0200    7.4400   15.1400 H       1  LIG1        0.0296
     59 H          40.3000   11.6600   15.9900 H       1  LIG1        0.0642
     60 H          41.6200   13.0800   14.0900 H       1  LIG1        0.0666
@<TRIPOS>BOND
     1     1     2   ar
     2     2     3   ar
     3     2     4    1
     4     4     5    1
     5     4    37    1
     6     4    38    1
     7     5     6    1
     8     6     7   ar
     9     6    33   ar
    10     7     8   ar
    11     7    60    1
    12     8     9    1
    13     8    32   ar
    14     9    10   ar
    15     9    31   ar
    16    10    11   ar
    17    10    39    1
    18    11    12   ar
    19    11    40    1
    20    12    13   ar
    21    12    41    1
    22    13    14    1
    23    13    31   ar
    24    14    15    1
    25    14    42    1
    26    15    16    1
    27    15    30    1
    28    15    43    1
    29    16    17    1
    30    16    44    1
    31    16    45    1
    32    17    18    1
    33    17    46    1
    34    17    47    1
    35    18    19    1
    36    18    29    1
    37    19    20    2
    38    19    21    2
    39    19    22    1
    40    22    23    1
    41    22    48    1
    42    22    49    1
    43    23    24   ar
    44    23    28   ar
    45    24    25   ar
    46    24    50    1
    47    25    26   ar
    48    25    51    1
    49    26    27   ar
    50    26    52    1
    51    27    28   ar
    52    27    53    1
    53    28    54    1
    54    29    30    1
    55    29    55    1
    56    29    56    1
    57    30    57    1
    58    30    58    1
    59    31    59    1
    60    32    33   ar
    61    33    34    1
    62    34    35   ar
    63    34    36   ar
