@<TRIPOS>MOLECULE
lig_23476
 48 50 0 0 0
SMALL
GASTEIGER

@<TRIPOS>ATOM
      1 O          41.0400   17.2700   11.8800 O.co2   1  LIG1       -0.5463
      2 C          40.2500   17.0700   12.8200 C.2     1  LIG1        0.0789
      3 O          39.1300   17.6100   12.9500 O.co2   1  LIG1       -0.5463
      4 C          40.7000   16.1400   13.9500 C.3     1  LIG1        0.1287
      5 O          42.0500   15.7500   13.7800 O.3     1  LIG1       -0.4839
      6 C          42.5100   14.9200   14.7400 C.ar    1  LIG1        0.1514
      7 C          42.1900   13.5700   14.8700 C.ar    1  LIG1        0.0749
      8 BR         41.0994   12.6263   13.5068 Br      1  LIG1       -0.0453
      9 C          42.6200   12.9300   16.0200 C.ar    1  LIG1        0.0376
     10 C          42.3600   11.5800   16.4900 C.ar    1  LIG1       -0.0084
     11 C          43.3800   10.8000   17.0300 C.ar    1  LIG1       -0.0534
     12 C          43.1300    9.5000   17.4600 C.ar    1  LIG1       -0.0594
     13 C          41.8500    8.9600   17.3400 C.ar    1  LIG1       -0.0408
     14 C          40.8100    9.7200   16.7900 C.ar    1  LIG1        0.0279
     15 N          39.5000    9.2300   16.6200 N.pl3   1  LIG1       -0.3410
     16 C          41.0800   11.0300   16.3900 C.ar    1  LIG1       -0.0326
     17 S          43.6400   14.0300   16.9200 S.2     1  LIG1       -0.0822
     18 C          43.3700   15.3200   15.7700 C.ar    1  LIG1        0.0778
     19 C          44.0500   16.6100   16.0400 C.2     1  LIG1        0.0818
     20 O          43.8800   17.5600   15.2400 O.co2   1  LIG1       -0.5440
     21 O          44.7800   16.7200   17.0500 O.co2   1  LIG1       -0.5440
     22 H          40.0500   15.2600   13.9700 H       1  LIG1        0.0760
     23 H          40.5800   16.6600   14.9000 H       1  LIG1        0.0760
     24 H          44.3800   11.2000   17.1300 H       1  LIG1        0.0624
     25 H          43.9200    8.9000   17.9000 H       1  LIG1        0.0618
     26 H          41.6700    7.9400   17.6700 H       1  LIG1        0.0636
     27 H          38.7500    9.9000   16.7100 H       1  LIG1        0.1463
     28 H          39.6900    7.2800   17.2000 H       1  LIG1        0.0497
     29 H          40.3000   11.6600   15.9900 H       1  LIG1        0.0642
     30 C          39.2600    7.8300   16.3600 C.3     1  LIG1        0.0206
     31 C          37.7400    7.5800   16.3500 C.3     1  LIG1       -0.0346
     32 C          37.0400    7.9000   15.0200 C.3     1  LIG1       -0.0514
     33 C          37.0300    6.6900   14.0700 C.3     1  LIG1       -0.0530
     34 C          38.3800    6.4100   13.4100 C.3     1  LIG1       -0.0530
     35 C          39.5200    6.1500   14.4100 C.3     1  LIG1       -0.0514
     36 C          40.0100    7.4500   15.0700 C.3     1  LIG1       -0.0346
     37 H          37.5300    6.5300   16.6600 H       1  LIG1        0.0283
     38 H          37.2900    8.2200   17.1500 H       1  LIG1        0.0283
     39 H          35.9900    8.1600   15.2400 H       1  LIG1        0.0266
     40 H          37.5000    8.7800   14.5300 H       1  LIG1        0.0266
     41 H          36.6800    5.7800   14.6100 H       1  LIG1        0.0265
     42 H          36.2900    6.8900   13.2700 H       1  LIG1        0.0265
     43 H          38.2700    5.5000   12.7700 H       1  LIG1        0.0265
     44 H          38.6500    7.2500   12.7200 H       1  LIG1        0.0265
     45 H          39.2200    5.4000   15.1700 H       1  LIG1        0.0266
     46 H          40.3700    5.7100   13.8400 H       1  LIG1        0.0266
     47 H          41.0900    7.3200   15.3300 H       1  LIG1        0.0283
     48 H          39.9700    8.2900   14.3500 H       1  LIG1        0.0283
@<TRIPOS>BOND
     1     1     2   ar
     2     2     3   ar
     3     2     4    1
     4     4     5    1
     5     4    22    1
     6     4    23    1
     7     5     6    1
     8     6     7   ar
     9     6    18   ar
    10     7     8    1
    11     7     9   ar
    12     9    10    1
    13     9    17   ar
    14    10    11   ar
    15    10    16   ar
    16    11    12   ar
    17    11    24    1
    18    12    13   ar
    19    12    25    1
    20    13    14   ar
    21    13    26    1
    22    14    15    1
    23    14    16   ar
    24    15    27    1
    25    15    30    1
    26    16    29    1
    27    17    18   ar
    28    18    19    1
    29    19    20   ar
    30    19    21   ar
    31    28    30    1
    32    30    31    1
    33    30    36    1
    34    31    32    1
    35    31    37    1
    36    31    38    1
    37    32    33    1
    38    32    39    1
    39    32    40    1
    40    33    34    1
    41    33    41    1
    42    33    42    1
    43    34    35    1
    44    34    43    1
    45    34    44    1
    46    35    36    1
    47    35    45    1
    48    35    46    1
    49    36    47    1
    50    36    48    1
