@<TRIPOS>MOLECULE
lig_23467
 31 32 0 0 0
SMALL
GASTEIGER

@<TRIPOS>ATOM
      1 O          39.1700   17.5100   12.7000 O.co2   1  LIG1       -0.5463
      2 C          40.3300   17.0300   12.6900 C.2     1  LIG1        0.0789
      3 O          41.2000   17.2700   11.8300 O.co2   1  LIG1       -0.5463
      4 C          40.7300   16.1100   13.8500 C.3     1  LIG1        0.1287
      5 O          42.0900   15.7300   13.7400 O.3     1  LIG1       -0.4839
      6 C          42.5100   14.9200   14.7400 C.ar    1  LIG1        0.1514
      7 C          42.1900   13.5700   14.8700 C.ar    1  LIG1        0.0749
      8 BR         41.2000   12.6500   13.5200 Br      1  LIG1       -0.0453
      9 C          42.6200   12.9300   16.0200 C.ar    1  LIG1        0.0376
     10 C          42.3400   11.5900   16.4800 C.ar    1  LIG1       -0.0067
     11 C          43.3700   10.7600   16.9500 C.ar    1  LIG1       -0.0533
     12 C          43.0900    9.4600   17.3700 C.ar    1  LIG1       -0.0577
     13 C          41.7800    8.9700   17.3100 C.ar    1  LIG1       -0.0199
     14 C          40.7400    9.7900   16.8400 C.ar    1  LIG1        0.1207
     15 O          39.4400    9.3900   16.7800 O.3     1  LIG1       -0.4951
     16 C          39.0200    8.0700   17.0700 C.3     1  LIG1        0.0788
     17 C          41.0300   11.0900   16.4500 C.ar    1  LIG1       -0.0117
     18 S          43.6400   14.0300   16.9200 S.2     1  LIG1       -0.0822
     19 C          43.3700   15.3200   15.7700 C.ar    1  LIG1        0.0778
     20 C          44.0500   16.6100   16.0400 C.2     1  LIG1        0.0818
     21 O          43.8800   17.5600   15.2400 O.co2   1  LIG1       -0.5440
     22 O          44.7800   16.7200   17.0500 O.co2   1  LIG1       -0.5440
     23 H          40.5600   16.6200   14.7900 H       1  LIG1        0.0760
     24 H          40.0700   15.2300   13.8200 H       1  LIG1        0.0760
     25 H          44.3800   11.1200   16.9900 H       1  LIG1        0.0624
     26 H          43.8800    8.8300   17.7400 H       1  LIG1        0.0619
     27 H          41.6000    7.9600   17.6500 H       1  LIG1        0.0654
     28 H          40.2300   11.7400   16.1100 H       1  LIG1        0.0660
     29 H          39.0300    7.9200   18.1500 H       1  LIG1        0.0660
     30 H          39.7400    7.3700   16.6500 H       1  LIG1        0.0660
     31 H          38.0200    7.8900   16.6700 H       1  LIG1        0.0660
@<TRIPOS>BOND
     1     1     2   ar
     2     2     3   ar
     3     2     4    1
     4     4     5    1
     5     4    23    1
     6     4    24    1
     7     5     6    1
     8     6     7   ar
     9     6    19   ar
    10     7     8    1
    11     7     9   ar
    12     9    10    1
    13     9    18   ar
    14    10    11   ar
    15    10    17   ar
    16    11    12   ar
    17    11    25    1
    18    12    13   ar
    19    12    26    1
    20    13    14   ar
    21    13    27    1
    22    14    15    1
    23    14    17   ar
    24    15    16    1
    25    16    29    1
    26    16    30    1
    27    16    31    1
    28    17    28    1
    29    18    19   ar
    30    19    20    1
    31    20    21   ar
    32    20    22   ar
