@<TRIPOS>MOLECULE
lig_23474
 48 50 0 0 0
SMALL
GASTEIGER

@<TRIPOS>ATOM
      1 O          39.1900   17.5700   12.7200 O.co2   1  LIG1       -0.5463
      2 C          40.3300   17.0500   12.7000 C.2     1  LIG1        0.0789
      3 O          41.1800   17.2200   11.8000 O.co2   1  LIG1       -0.5463
      4 C          40.7500   16.1700   13.8800 C.3     1  LIG1        0.1287
      5 O          42.0900   15.7300   13.7400 O.3     1  LIG1       -0.4839
      6 C          42.5100   14.9200   14.7400 C.ar    1  LIG1        0.1514
      7 C          42.1900   13.5700   14.8700 C.ar    1  LIG1        0.0749
      8 BR         41.1691   12.6116   13.4637 Br      1  LIG1       -0.0453
      9 C          42.6200   12.9300   16.0200 C.ar    1  LIG1        0.0376
     10 C          42.3400   11.5900   16.4800 C.ar    1  LIG1       -0.0084
     11 C          43.3700   10.7600   16.9500 C.ar    1  LIG1       -0.0534
     12 C          43.0900    9.4600   17.3700 C.ar    1  LIG1       -0.0594
     13 C          41.7800    8.9700   17.3100 C.ar    1  LIG1       -0.0408
     14 C          40.7400    9.7900   16.8400 C.ar    1  LIG1        0.0277
     15 N          39.4000    9.3800   16.7700 N.pl3   1  LIG1       -0.3435
     16 C          39.0000    7.9700   16.7100 C.3     1  LIG1        0.0119
     17 C          41.0300   11.0900   16.4500 C.ar    1  LIG1       -0.0326
     18 S          43.6400   14.0300   16.9200 S.2     1  LIG1       -0.0822
     19 C          43.3700   15.3200   15.7700 C.ar    1  LIG1        0.0778
     20 C          44.0500   16.6100   16.0400 C.2     1  LIG1        0.0818
     21 O          43.8800   17.5600   15.2400 O.co2   1  LIG1       -0.5440
     22 O          44.7800   16.7200   17.0500 O.co2   1  LIG1       -0.5440
     23 H          40.6400   16.7200   14.8100 H       1  LIG1        0.0760
     24 H          40.0600   15.3200   13.9300 H       1  LIG1        0.0760
     25 H          44.3800   11.1200   16.9800 H       1  LIG1        0.0624
     26 H          43.8800    8.8300   17.7300 H       1  LIG1        0.0618
     27 H          41.5900    7.9600   17.6400 H       1  LIG1        0.0636
     28 H          38.6600   10.0600   16.8100 H       1  LIG1        0.1461
     29 H          39.6600    7.3800   17.3400 H       1  LIG1        0.0464
     30 H          37.9900    7.8700   17.1200 H       1  LIG1        0.0464
     31 H          40.2300   11.7400   16.1100 H       1  LIG1        0.0642
     32 H          39.1400    8.2800   14.5900 H       1  LIG1        0.0316
     33 C          37.8000    6.0500   13.5700 C.3     1  LIG1       -0.0528
     34 C          37.7600    6.6600   14.9700 C.3     1  LIG1       -0.0488
     35 C          39.0500    7.4300   15.2900 C.3     1  LIG1       -0.0255
     36 C          40.2800    6.5100   15.1300 C.3     1  LIG1       -0.0488
     37 C          40.3300    5.9000   13.7200 C.3     1  LIG1       -0.0528
     38 C          39.0300    5.1400   13.4000 C.3     1  LIG1       -0.0530
     39 H          37.8400    6.8600   12.8100 H       1  LIG1        0.0265
     40 H          36.8700    5.4600   13.3700 H       1  LIG1        0.0265
     41 H          37.6100    5.8500   15.7300 H       1  LIG1        0.0268
     42 H          36.8800    7.3500   15.0600 H       1  LIG1        0.0268
     43 H          41.2100    7.1000   15.3200 H       1  LIG1        0.0268
     44 H          40.2400    5.7000   15.8900 H       1  LIG1        0.0268
     45 H          40.4700    6.7100   12.9600 H       1  LIG1        0.0265
     46 H          41.2100    5.2200   13.6300 H       1  LIG1        0.0265
     47 H          38.9400    4.2600   14.0900 H       1  LIG1        0.0265
     48 H          39.0700    4.7300   12.3700 H       1  LIG1        0.0265
@<TRIPOS>BOND
     1     1     2   ar
     2     2     3   ar
     3     2     4    1
     4     4     5    1
     5     4    23    1
     6     4    24    1
     7     5     6    1
     8     6     7   ar
     9     6    19   ar
    10     7     8    1
    11     7     9   ar
    12     9    10    1
    13     9    18   ar
    14    10    11   ar
    15    10    17   ar
    16    11    12   ar
    17    11    25    1
    18    12    13   ar
    19    12    26    1
    20    13    14   ar
    21    13    27    1
    22    14    15    1
    23    14    17   ar
    24    15    16    1
    25    15    28    1
    26    16    29    1
    27    16    30    1
    28    16    35    1
    29    17    31    1
    30    18    19   ar
    31    19    20    1
    32    20    21   ar
    33    20    22   ar
    34    32    35    1
    35    33    34    1
    36    33    38    1
    37    33    39    1
    38    33    40    1
    39    34    35    1
    40    34    41    1
    41    34    42    1
    42    35    36    1
    43    36    37    1
    44    36    43    1
    45    36    44    1
    46    37    38    1
    47    37    45    1
    48    37    46    1
    49    38    47    1
    50    38    48    1
