@<TRIPOS>MOLECULE
lig_23483
 57 60 0 0 0
SMALL
GASTEIGER

@<TRIPOS>ATOM
      1 O          41.0400   17.2700   11.8800 O.co2   1  LIG1       -0.5463
      2 C          40.2500   17.0700   12.8200 C.2     1  LIG1        0.0789
      3 O          39.1300   17.6100   12.9500 O.co2   1  LIG1       -0.5463
      4 C          40.7000   16.1400   13.9500 C.3     1  LIG1        0.1287
      5 O          42.0500   15.7500   13.7800 O.3     1  LIG1       -0.4839
      6 C          42.5100   14.9200   14.7400 C.ar    1  LIG1        0.1514
      7 C          42.1900   13.5700   14.8700 C.ar    1  LIG1        0.0749
      8 BR         41.0994   12.6263   13.5068 Br      1  LIG1       -0.0453
      9 C          42.6200   12.9300   16.0200 C.ar    1  LIG1        0.0376
     10 C          42.3600   11.5800   16.4900 C.ar    1  LIG1       -0.0084
     11 C          43.3800   10.8000   17.0300 C.ar    1  LIG1       -0.0534
     12 C          43.1300    9.5000   17.4600 C.ar    1  LIG1       -0.0594
     13 C          41.8500    8.9600   17.3400 C.ar    1  LIG1       -0.0408
     14 C          40.8100    9.7200   16.7900 C.ar    1  LIG1        0.0279
     15 N          39.5000    9.2300   16.6200 N.pl3   1  LIG1       -0.3409
     16 C          39.2600    7.8200   16.3600 C.3     1  LIG1        0.0231
     17 C          37.7400    7.5400   16.3200 C.3     1  LIG1       -0.0201
     18 C          37.4100    6.0900   15.9100 C.3     1  LIG1        0.0222
     19 N          38.1200    5.7200   14.6700 N.3     1  LIG1       -0.1765
     20 S          37.3800    4.7100   13.5000 S.O2    1  LIG1        0.0609
     21 O          38.1900    4.8000   12.2800 O.2     1  LIG1       -0.1528
     22 O          35.9400    5.0200   13.4600 O.2     1  LIG1       -0.1528
     23 C          39.5800    5.9000   14.6900 C.3     1  LIG1        0.0222
     24 C          39.9400    7.3500   15.0500 C.3     1  LIG1       -0.0201
     25 C          41.0800   11.0300   16.3900 C.ar    1  LIG1       -0.0326
     26 S          43.6400   14.0300   16.9200 S.2     1  LIG1       -0.0822
     27 C          43.3700   15.3200   15.7700 C.ar    1  LIG1        0.0778
     28 C          44.0500   16.6100   16.0400 C.2     1  LIG1        0.0818
     29 O          43.8800   17.5600   15.2400 O.co2   1  LIG1       -0.5440
     30 O          44.7800   16.7200   17.0500 O.co2   1  LIG1       -0.5440
     31 H          40.0500   15.2600   13.9700 H       1  LIG1        0.0760
     32 H          40.5800   16.6600   14.9000 H       1  LIG1        0.0760
     33 H          44.3800   11.2000   17.1300 H       1  LIG1        0.0624
     34 H          43.9200    8.9000   17.9000 H       1  LIG1        0.0618
     35 H          41.6700    7.9400   17.6700 H       1  LIG1        0.0636
     36 H          38.7500    9.9000   16.7100 H       1  LIG1        0.1463
     37 H          39.6900    7.2800   17.2000 H       1  LIG1        0.0498
     38 H          37.2900    7.7500   17.2900 H       1  LIG1        0.0296
     39 H          37.2700    8.2200   15.6100 H       1  LIG1        0.0296
     40 H          37.7000    5.3800   16.6900 H       1  LIG1        0.0444
     41 H          36.3300    5.9600   15.7800 H       1  LIG1        0.0444
     42 H          39.9800    5.1900   15.4100 H       1  LIG1        0.0444
     43 H          39.9900    5.6200   13.7300 H       1  LIG1        0.0444
     44 H          39.6400    8.0100   14.2300 H       1  LIG1        0.0296
     45 H          41.0200    7.4400   15.1400 H       1  LIG1        0.0296
     46 H          40.3000   11.6600   15.9900 H       1  LIG1        0.0642
     47 C          37.9500    0.4500   15.3000 C.ar    1  LIG1       -0.0616
     48 C          38.9800    1.4100   15.4100 C.ar    1  LIG1       -0.0599
     49 C          38.8100    2.6900   14.8700 C.ar    1  LIG1       -0.0353
     50 C          37.6100    3.0200   14.2100 C.ar    1  LIG1        0.1055
     51 C          36.5800    2.0700   14.1000 C.ar    1  LIG1       -0.0353
     52 C          36.7600    0.7800   14.6500 C.ar    1  LIG1       -0.0599
     53 H          38.0900   -0.5600   15.7300 H       1  LIG1        0.0618
     54 H          39.9200    1.1500   15.9300 H       1  LIG1        0.0618
     55 H          39.6100    3.4400   14.9600 H       1  LIG1        0.0637
     56 H          35.6400    2.3200   13.5900 H       1  LIG1        0.0637
     57 H          35.9500    0.0300   14.5600 H       1  LIG1        0.0618
@<TRIPOS>BOND
     1     1     2   ar
     2     2     3   ar
     3     2     4    1
     4     4     5    1
     5     4    31    1
     6     4    32    1
     7     5     6    1
     8     6     7   ar
     9     6    27   ar
    10     7     8    1
    11     7     9   ar
    12     9    10    1
    13     9    26   ar
    14    10    11   ar
    15    10    25   ar
    16    11    12   ar
    17    11    33    1
    18    12    13   ar
    19    12    34    1
    20    13    14   ar
    21    13    35    1
    22    14    15    1
    23    14    25   ar
    24    15    16    1
    25    15    36    1
    26    16    17    1
    27    16    24    1
    28    16    37    1
    29    17    18    1
    30    17    38    1
    31    17    39    1
    32    18    19    1
    33    18    40    1
    34    18    41    1
    35    19    20    1
    36    19    23    1
    37    20    21    2
    38    20    22    2
    39    20    50    1
    40    23    24    1
    41    23    42    1
    42    23    43    1
    43    24    44    1
    44    24    45    1
    45    25    46    1
    46    26    27   ar
    47    27    28    1
    48    28    29   ar
    49    28    30   ar
    50    47    48   ar
    51    47    52   ar
    52    47    53    1
    53    48    49   ar
    54    48    54    1
    55    49    50   ar
    56    49    55    1
    57    50    51   ar
    58    51    52   ar
    59    51    56    1
    60    52    57    1
