@<TRIPOS>MOLECULE
lig_23330_2qbq
 57 59 0 0 0
SMALL
GASTEIGER

@<TRIPOS>ATOM
      1 O          41.0400   17.2700   11.8800 O.co2   1  LIG1       -0.5463
      2 C          40.2500   17.0700   12.8200 C.2     1  LIG1        0.0789
      3 O          39.1300   17.6100   12.9500 O.co2   1  LIG1       -0.5463
      4 C          40.7000   16.1400   13.9500 C.3     1  LIG1        0.1287
      5 O          42.0500   15.7500   13.7800 O.3     1  LIG1       -0.4839
      6 C          42.5100   14.9200   14.7400 C.ar    1  LIG1        0.1514
      7 C          42.1900   13.5700   14.8700 C.ar    1  LIG1        0.0749
      8 BR         41.0994   12.6263   13.5068 Br      1  LIG1       -0.0453
      9 C          42.6200   12.9300   16.0200 C.ar    1  LIG1        0.0376
     10 C          42.3600   11.5800   16.4900 C.ar    1  LIG1       -0.0084
     11 C          43.3800   10.8000   17.0300 C.ar    1  LIG1       -0.0534
     12 C          43.1300    9.5000   17.4600 C.ar    1  LIG1       -0.0594
     13 C          41.8500    8.9600   17.3400 C.ar    1  LIG1       -0.0408
     14 C          40.8100    9.7200   16.7900 C.ar    1  LIG1        0.0279
     15 N          39.5000    9.2300   16.6200 N.pl3   1  LIG1       -0.3409
     16 C          39.2600    7.8200   16.3600 C.3     1  LIG1        0.0216
     17 C          37.7400    7.5400   16.3200 C.3     1  LIG1       -0.0294
     18 C          37.4100    6.0900   15.9100 C.3     1  LIG1       -0.0327
     19 C          38.1200    5.7200   14.6700 C.3     1  LIG1       -0.0426
     20 C          39.5800    5.9000   14.6900 C.3     1  LIG1       -0.0327
     21 C          39.9400    7.3500   15.0500 C.3     1  LIG1       -0.0294
     22 C          41.0800   11.0300   16.3900 C.ar    1  LIG1       -0.0326
     23 S          43.6400   14.0300   16.9200 S.2     1  LIG1       -0.0822
     24 C          43.3700   15.3200   15.7700 C.ar    1  LIG1        0.0778
     25 C          44.0500   16.6100   16.0400 C.2     1  LIG1        0.0818
     26 O          43.8800   17.5600   15.2400 O.co2   1  LIG1       -0.5440
     27 O          44.7800   16.7200   17.0500 O.co2   1  LIG1       -0.5440
     28 H          40.0500   15.2600   13.9700 H       1  LIG1        0.0760
     29 H          40.5800   16.6600   14.9000 H       1  LIG1        0.0760
     30 H          44.3800   11.2000   17.1300 H       1  LIG1        0.0624
     31 H          43.9200    8.9000   17.9000 H       1  LIG1        0.0618
     32 H          41.6700    7.9400   17.6700 H       1  LIG1        0.0636
     33 H          38.7500    9.9000   16.7100 H       1  LIG1        0.1463
     34 H          39.6900    7.2800   17.2000 H       1  LIG1        0.0498
     35 H          37.2900    7.7500   17.2900 H       1  LIG1        0.0288
     36 H          37.2700    8.2200   15.6100 H       1  LIG1        0.0288
     37 C          37.8200    5.0900   17.0100 C.3     1  LIG1       -0.0597
     38 C          35.8900    5.9100   15.7300 C.3     1  LIG1       -0.0597
     39 C          40.1500    4.8900   15.7100 C.3     1  LIG1       -0.0597
     40 C          40.1600    5.5000   13.3300 C.3     1  LIG1       -0.0597
     41 H          39.6400    8.0100   14.2300 H       1  LIG1        0.0288
     42 H          41.0200    7.4400   15.1400 H       1  LIG1        0.0288
     43 H          40.3000   11.6600   15.9900 H       1  LIG1        0.0642
     44 H          37.9400    4.6600   14.4500 H       1  LIG1        0.0276
     45 H          37.7100    6.3200   13.8600 H       1  LIG1        0.0276
     46 H          41.2400    5.6300   13.3400 H       1  LIG1        0.0235
     47 H          39.9200    4.4600   13.1200 H       1  LIG1        0.0235
     48 H          39.7300    6.1300   12.5500 H       1  LIG1        0.0235
     49 H          41.2400    5.0000   15.7500 H       1  LIG1        0.0235
     50 H          39.7300    5.0900   16.6900 H       1  LIG1        0.0235
     51 H          39.9000    3.8800   15.4000 H       1  LIG1        0.0235
     52 H          37.5700    4.0800   16.7000 H       1  LIG1        0.0235
     53 H          38.8900    5.1700   17.1900 H       1  LIG1        0.0235
     54 H          37.2800    5.3300   17.9300 H       1  LIG1        0.0235
     55 H          35.6700    4.8800   15.4400 H       1  LIG1        0.0235
     56 H          35.3800    6.1400   16.6700 H       1  LIG1        0.0235
     57 H          35.5300    6.5900   14.9600 H       1  LIG1        0.0235
@<TRIPOS>BOND
     1     1     2   ar
     2     2     3   ar
     3     2     4    1
     4     4     5    1
     5     4    28    1
     6     4    29    1
     7     5     6    1
     8     6     7   ar
     9     6    24   ar
    10     7     8    1
    11     7     9   ar
    12     9    10    1
    13     9    23   ar
    14    10    11   ar
    15    10    22   ar
    16    11    12   ar
    17    11    30    1
    18    12    13   ar
    19    12    31    1
    20    13    14   ar
    21    13    32    1
    22    14    15    1
    23    14    22   ar
    24    15    16    1
    25    15    33    1
    26    16    17    1
    27    16    21    1
    28    16    34    1
    29    17    18    1
    30    17    35    1
    31    17    36    1
    32    18    19    1
    33    18    37    1
    34    18    38    1
    35    19    20    1
    36    19    44    1
    37    19    45    1
    38    20    21    1
    39    20    39    1
    40    20    40    1
    41    21    41    1
    42    21    42    1
    43    22    43    1
    44    23    24   ar
    45    24    25    1
    46    25    26   ar
    47    25    27   ar
    48    37    52    1
    49    37    53    1
    50    37    54    1
    51    38    55    1
    52    38    56    1
    53    38    57    1
    54    39    49    1
    55    39    50    1
    56    39    51    1
    57    40    46    1
    58    40    47    1
    59    40    48    1
