@<TRIPOS>MOLECULE
lig_23486
 60 63 0 0 0
SMALL
GASTEIGER

@<TRIPOS>ATOM
      1 O          41.0400   17.2700   11.8800 O.co2   1  LIG1       -0.5463
      2 C          40.2500   17.0700   12.8200 C.2     1  LIG1        0.0789
      3 O          39.1300   17.6100   12.9500 O.co2   1  LIG1       -0.5463
      4 C          40.7000   16.1400   13.9500 C.3     1  LIG1        0.1288
      5 O          42.0500   15.7500   13.7800 O.3     1  LIG1       -0.4835
      6 C          42.5100   14.9200   14.7400 C.ar    1  LIG1        0.1557
      7 C          42.1900   13.5700   14.8700 C.ar    1  LIG1        0.0979
      8 CL         41.2400   12.7400   13.6800 Cl      1  LIG1       -0.0785
      9 C          42.6200   12.9300   16.0200 C.ar    1  LIG1        0.0420
     10 C          42.3600   11.5800   16.4900 C.ar    1  LIG1       -0.0080
     11 C          43.3800   10.8000   17.0300 C.ar    1  LIG1       -0.0534
     12 C          43.1300    9.5000   17.4600 C.ar    1  LIG1       -0.0594
     13 C          41.8500    8.9600   17.3400 C.ar    1  LIG1       -0.0408
     14 C          40.8100    9.7200   16.7900 C.ar    1  LIG1        0.0279
     15 N          39.5000    9.2300   16.6200 N.pl3   1  LIG1       -0.3409
     16 C          39.2600    7.8200   16.3600 C.3     1  LIG1        0.0231
     17 C          37.7400    7.5400   16.3200 C.3     1  LIG1       -0.0201
     18 C          37.4100    6.0900   15.9100 C.3     1  LIG1        0.0218
     19 N          38.1200    5.7200   14.6700 N.3     1  LIG1       -0.1807
     20 S          37.3800    4.7100   13.5000 S.O2    1  LIG1        0.0359
     21 O          38.1900    4.8000   12.2800 O.2     1  LIG1       -0.1577
     22 O          35.9400    5.0200   13.4600 O.2     1  LIG1       -0.1577
     23 C          37.6100    3.0200   14.2100 C.3     1  LIG1        0.1069
     24 C          37.2200    2.0000   13.1600 C.ar    1  LIG1       -0.0250
     25 C          35.8900    1.5900   13.0400 C.ar    1  LIG1       -0.0570
     26 C          35.5300    0.6800   12.0400 C.ar    1  LIG1       -0.0615
     27 C          36.4900    0.1800   11.1700 C.ar    1  LIG1       -0.0617
     28 C          37.8300    0.5800   11.3000 C.ar    1  LIG1       -0.0615
     29 C          38.1900    1.4800   12.2900 C.ar    1  LIG1       -0.0570
     30 C          39.5800    5.9000   14.6900 C.3     1  LIG1        0.0218
     31 C          39.9400    7.3500   15.0500 C.3     1  LIG1       -0.0201
     32 C          41.0800   11.0300   16.3900 C.ar    1  LIG1       -0.0326
     33 S          43.6400   14.0300   16.9200 S.2     1  LIG1       -0.0818
     34 C          43.3700   15.3200   15.7700 C.ar    1  LIG1        0.0782
     35 C          44.0500   16.6100   16.0400 C.2     1  LIG1        0.0818
     36 O          43.8800   17.5600   15.2400 O.co2   1  LIG1       -0.5440
     37 O          44.7800   16.7200   17.0500 O.co2   1  LIG1       -0.5440
     38 H          40.0500   15.2600   13.9700 H       1  LIG1        0.0760
     39 H          40.5800   16.6600   14.9000 H       1  LIG1        0.0760
     40 H          44.3800   11.2000   17.1300 H       1  LIG1        0.0624
     41 H          43.9200    8.9000   17.9000 H       1  LIG1        0.0618
     42 H          41.6700    7.9400   17.6700 H       1  LIG1        0.0636
     43 H          38.7500    9.9000   16.7100 H       1  LIG1        0.1463
     44 H          39.6900    7.2800   17.2000 H       1  LIG1        0.0498
     45 H          37.2900    7.7500   17.2900 H       1  LIG1        0.0296
     46 H          37.2700    8.2200   15.6100 H       1  LIG1        0.0296
     47 H          37.7000    5.3800   16.6900 H       1  LIG1        0.0444
     48 H          36.3300    5.9600   15.7800 H       1  LIG1        0.0444
     49 H          38.6500    2.9200   14.5200 H       1  LIG1        0.0565
     50 H          37.0000    2.9100   15.1100 H       1  LIG1        0.0565
     51 H          35.1300    1.9800   13.7000 H       1  LIG1        0.0621
     52 H          34.5000    0.3700   11.9400 H       1  LIG1        0.0618
     53 H          36.2200   -0.5100   10.3900 H       1  LIG1        0.0618
     54 H          38.5700    0.1900   10.6100 H       1  LIG1        0.0618
     55 H          39.2200    1.7800   12.3900 H       1  LIG1        0.0621
     56 H          39.9800    5.1900   15.4100 H       1  LIG1        0.0444
     57 H          39.9900    5.6200   13.7300 H       1  LIG1        0.0444
     58 H          39.6400    8.0100   14.2300 H       1  LIG1        0.0296
     59 H          41.0200    7.4400   15.1400 H       1  LIG1        0.0296
     60 H          40.3000   11.6600   15.9900 H       1  LIG1        0.0642
@<TRIPOS>BOND
     1     1     2   ar
     2     2     3   ar
     3     2     4    1
     4     4     5    1
     5     4    38    1
     6     4    39    1
     7     5     6    1
     8     6     7   ar
     9     6    34   ar
    10     7     8    1
    11     7     9   ar
    12     9    10    1
    13     9    33   ar
    14    10    11   ar
    15    10    32   ar
    16    11    12   ar
    17    11    40    1
    18    12    13   ar
    19    12    41    1
    20    13    14   ar
    21    13    42    1
    22    14    15    1
    23    14    32   ar
    24    15    16    1
    25    15    43    1
    26    16    17    1
    27    16    31    1
    28    16    44    1
    29    17    18    1
    30    17    45    1
    31    17    46    1
    32    18    19    1
    33    18    47    1
    34    18    48    1
    35    19    20    1
    36    19    30    1
    37    20    21    2
    38    20    22    2
    39    20    23    1
    40    23    24    1
    41    23    49    1
    42    23    50    1
    43    24    25   ar
    44    24    29   ar
    45    25    26   ar
    46    25    51    1
    47    26    27   ar
    48    26    52    1
    49    27    28   ar
    50    27    53    1
    51    28    29   ar
    52    28    54    1
    53    29    55    1
    54    30    31    1
    55    30    56    1
    56    30    57    1
    57    31    58    1
    58    31    59    1
    59    32    60    1
    60    33    34   ar
    61    34    35    1
    62    35    36   ar
    63    35    37   ar
