lig_08_ligNH2
  -OEChem-01272017353D

 54 57  0     1  0  0  0  0  0999 V2000
   10.6300   -9.3600    0.1100 C   0  0  0  0  0  0  0  0  0  0  0  0
   11.7700   -9.2100   -0.6800 C   0  0  0  0  0  0  0  0  0  0  0  0
   10.7000   -9.2100    1.4900 C   0  0  0  0  0  0  0  0  0  0  0  0
   11.9100   -8.9000    2.0900 C   0  0  0  0  0  0  0  0  0  0  0  0
   13.0600   -8.7200    1.3100 C   0  0  0  0  0  0  0  0  0  0  0  0
   13.0100   -8.8900   -0.0800 C   0  0  0  0  0  0  0  0  0  0  0  0
   14.2500   -8.7000   -0.9100 C   0  0  0  0  0  0  0  0  0  0  0  0
   14.2400   -8.2900   -2.1600 N   0  0  0  0  0  0  0  0  0  0  0  0
   15.5400   -8.0900   -2.6000 N   0  0  0  0  0  0  0  0  0  0  0  0
   15.5800   -8.8800   -0.5200 C   0  0  0  0  0  0  0  0  0  0  0  0
   16.3300   -8.4500   -1.5800 N   0  0  0  0  0  0  0  0  0  0  0  0
   17.7800   -8.2100   -1.6600 C   0  0  2  0  0  0  0  0  0  0  0  0
   18.6200   -9.4500   -1.2500 C   0  0  1  0  0  0  0  0  0  0  0  0
   18.3500  -10.5500   -2.1100 O   0  0  0  0  0  0  0  0  0  0  0  0
   18.1700   -7.0000   -0.7800 C   0  0  1  0  0  0  0  0  0  0  0  0
   17.7800   -7.1800    0.5700 O   0  0  0  0  0  0  0  0  0  0  0  0
   19.6900   -6.7300   -0.8800 C   0  0  1  0  0  0  0  0  0  0  0  0
   20.1300   -5.5300   -0.0200 C   0  0  0  0  0  0  0  0  0  0  0  0
   21.4800   -5.2100   -0.2200 O   0  0  0  0  0  0  0  0  0  0  0  0
   20.4000   -7.9100   -0.4900 O   0  0  0  0  0  0  0  0  0  0  0  0
   20.1300   -9.0900   -1.2600 C   0  0  1  0  0  0  0  0  0  0  0  0
   21.1200  -10.4600   -0.5800 S   0  0  0  0  0  0  0  0  0  0  0  0
   22.8000  -10.0900   -0.9500 C   0  0  0  0  0  0  0  0  0  0  0  0
   23.2100   -9.9300   -2.2800 C   0  0  0  0  0  0  0  0  0  0  0  0
   24.5400   -9.6400   -2.5700 C   0  0  0  0  0  0  0  0  0  0  0  0
   25.4600   -9.5000   -1.5300 C   0  0  0  0  0  0  0  0  0  0  0  0
   25.0600   -9.6700   -0.2000 C   0  0  0  0  0  0  0  0  0  0  0  0
   23.7300   -9.9700    0.0900 C   0  0  0  0  0  0  0  0  0  0  0  0
   16.0400   -9.1800    0.4000 H   0  0  0  0  0  0  0  0  0  0  0  0
   18.0400   -7.9700   -2.6900 H   0  0  0  0  0  0  0  0  0  0  0  0
   18.3300   -9.7700   -0.2400 H   0  0  0  0  0  0  0  0  0  0  0  0
   18.8800  -11.2900   -1.8200 H   0  0  0  0  0  0  0  0  0  0  0  0
   17.6200   -6.1200   -1.1300 H   0  0  0  0  0  0  0  0  0  0  0  0
   17.7300   -6.3100    1.0000 H   0  0  0  0  0  0  0  0  0  0  0  0
   19.9300   -6.5100   -1.9200 H   0  0  0  0  0  0  0  0  0  0  0  0
   19.9700   -5.7200    1.0400 H   0  0  0  0  0  0  0  0  0  0  0  0
   19.5400   -4.6400   -0.2800 H   0  0  0  0  0  0  0  0  0  0  0  0
   22.0200   -5.9300    0.1400 H   0  0  0  0  0  0  0  0  0  0  0  0
   20.4700   -8.9300   -2.2800 H   0  0  0  0  0  0  0  0  0  0  0  0
   22.4900  -10.0300   -3.0900 H   0  0  0  0  0  0  0  0  0  0  0  0
   24.8500   -9.5100   -3.5900 H   0  0  0  0  0  0  0  0  0  0  0  0
   25.7600   -9.5700    0.6100 H   0  0  0  0  0  0  0  0  0  0  0  0
   23.4200  -10.1000    1.1100 H   0  0  0  0  0  0  0  0  0  0  0  0
    9.4400   -9.6600   -0.4800 F   0  0  0  0  0  0  0  0  0  0  0  0
   11.6700   -9.3900   -2.0100 F   0  0  0  0  0  0  0  0  0  0  0  0
   11.9800   -8.7700    3.4400 F   0  0  0  0  0  0  0  0  0  0  0  0
   14.2100   -8.3900    1.9400 F   0  0  0  0  0  0  0  0  0  0  0  0
   26.9100   -9.1700   -1.8500 C   0  0  0  0  0  0  0  0  0  0  0  0
   27.4400   -8.8100   -0.9700 H   0  0  0  0  0  0  0  0  0  0  0  0
   27.4200  -10.0600   -2.2200 H   0  0  0  0  0  0  0  0  0  0  0  0
   26.9600   -8.4000   -2.6200 H   0  0  0  0  0  0  0  0  0  0  0  0
    9.4600   -9.4100    2.3400 N   0  0  0  0  0  0  0  0  0  0  0  0
    9.5100   -9.3000    3.3400 H   0  0  0  0  0  0  0  0  0  0  0  0
    8.5800   -9.6500    1.9000 H   0  0  0  0  0  0  0  0  0  0  0  0
 25 41  1  0  0  0  0
 24 40  1  0  0  0  0
 12 30  1  0  0  0  0
 48 51  1  0  0  0  0
  8  9  2  0  0  0  0
  9 11  1  0  0  0  0
 24 25  2  0  0  0  0
 25 26  1  0  0  0  0
 23 24  1  0  0  0  0
 21 39  1  0  0  0  0
 48 50  1  0  0  0  0
  7  8  1  0  0  0  0
 14 32  1  0  0  0  0
 13 14  1  0  0  0  0
  2 45  1  0  0  0  0
 17 35  1  0  0  0  0
 26 48  1  0  0  0  0
 48 49  1  0  0  0  0
 11 12  1  0  0  0  0
 12 13  1  0  0  0  0
 12 15  1  0  0  0  0
 10 11  1  0  0  0  0
 26 27  2  0  0  0  0
 13 21  1  0  0  0  0
 21 22  1  0  0  0  0
 20 21  1  0  0  0  0
 13 31  1  0  0  0  0
 15 33  1  0  0  0  0
 22 23  1  0  0  0  0
 23 28  2  0  0  0  0
  7 10  2  0  0  0  0
  6  7  1  0  0  0  0
 15 17  1  0  0  0  0
 17 20  1  0  0  0  0
 17 18  1  0  0  0  0
 15 16  1  0  0  0  0
  2  6  2  0  0  0  0
  1  2  1  0  0  0  0
 10 29  1  0  0  0  0
  1 44  1  0  0  0  0
 18 37  1  0  0  0  0
 18 19  1  0  0  0  0
 19 38  1  0  0  0  0
 27 28  1  0  0  0  0
 27 42  1  0  0  0  0
  5  6  1  0  0  0  0
 18 36  1  0  0  0  0
 28 43  1  0  0  0  0
  1  3  2  0  0  0  0
 16 34  1  0  0  0  0
  5 47  1  0  0  0  0
  4  5  2  0  0  0  0
  3  4  1  0  0  0  0
  3 52  1  0  0  0  0
 52 54  1  0  0  0  0
  4 46  1  0  0  0  0
 52 53  1  0  0  0  0
M  END
$$$$
