lig_CHEMBL3402761_1_21
  -OEChem-01272013113D

 64 68  0     0  0  0  0  0  0999 V2000
   20.6300   29.5300   59.9400 O   0  0  0  0  0  0  0  0  0  0  0  0
   20.1800   29.3700   58.8000 C   0  0  0  0  0  0  0  0  0  0  0  0
   19.8500   28.0500   58.2900 C   0  0  0  0  0  0  0  0  0  0  0  0
   19.3800   27.8500   57.0400 C   0  0  0  0  0  0  0  0  0  0  0  0
   19.1800   28.9500   56.1200 C   0  0  0  0  0  0  0  0  0  0  0  0
   19.4500   30.1400   56.5700 N   0  0  0  0  0  0  0  0  0  0  0  0
   19.9300   30.3500   57.8700 N   0  0  0  0  0  0  0  0  0  0  0  0
   20.2300   31.7500   58.2200 C   0  0  0  0  0  0  0  0  0  0  0  0
   21.6300   32.2200   57.8300 C   0  0  0  0  0  0  0  0  0  0  0  0
   22.6600   32.2300   58.7800 C   0  0  0  0  0  0  0  0  0  0  0  0
   23.9300   32.7000   58.4300 C   0  0  0  0  0  0  0  0  0  0  0  0
   24.1800   33.1300   57.1300 C   0  0  0  0  0  0  0  0  0  0  0  0
   23.1800   33.1200   56.1500 C   0  0  0  0  0  0  0  0  0  0  0  0
   21.9000   32.6800   56.5300 C   0  0  0  0  0  0  0  0  0  0  0  0
   23.4900   33.4900   54.7200 C   0  0  0  0  0  0  0  0  0  0  0  0
   24.7700   33.7900   54.3800 N   0  0  0  0  0  0  0  0  0  0  0  0
   25.0500   33.9300   53.0500 C   0  0  0  0  0  0  0  0  0  0  0  0
   24.0800   33.7500   52.0500 C   0  0  0  0  0  0  0  0  0  0  0  0
   24.4600   33.8000   50.7200 O   0  0  0  0  0  0  0  0  0  0  0  0
   23.5200   33.5700   49.6700 C   0  0  0  0  0  0  0  0  0  0  0  0
   22.8200   32.1800   49.7100 C   0  0  0  0  0  0  0  0  0  0  0  0
   23.1400   31.3200   48.5600 N   0  3  0  0  0  0  0  0  0  0  0  0
   22.2200   30.1800   48.5100 C   0  0  0  0  0  0  0  0  0  0  0  0
   22.5700   29.2500   47.3200 C   0  0  0  0  0  0  0  0  0  0  0  0
   23.9300   28.8300   47.3900 O   0  0  0  0  0  0  0  0  0  0  0  0
   24.8500   29.9100   47.4500 C   0  0  0  0  0  0  0  0  0  0  0  0
   24.5300   30.8500   48.6300 C   0  0  0  0  0  0  0  0  0  0  0  0
   22.7800   33.5200   52.5200 C   0  0  0  0  0  0  0  0  0  0  0  0
   22.4700   33.3800   53.8300 N   0  0  0  0  0  0  0  0  0  0  0  0
   18.7000   28.7100   54.7400 C   0  0  0  0  0  0  0  0  0  0  0  0
   18.9900   29.6600   53.7300 C   0  0  0  0  0  0  0  0  0  0  0  0
   18.5800   29.4500   52.4200 C   0  0  0  0  0  0  0  0  0  0  0  0
   17.8700   28.3000   52.0800 C   0  0  0  0  0  0  0  0  0  0  0  0
   17.5800   27.3500   53.0500 C   0  0  0  0  0  0  0  0  0  0  0  0
   18.0000   27.5500   54.3700 C   0  0  0  0  0  0  0  0  0  0  0  0
   16.8400   26.1500   52.6800 C   0  0  0  0  0  0  0  0  0  0  0  0
   16.2500   25.2000   52.3700 N   0  0  0  0  0  0  0  0  0  0  0  0
   20.0100   27.2000   58.9400 H   0  0  0  0  0  0  0  0  0  0  0  0
   19.1800   26.8300   56.7500 H   0  0  0  0  0  0  0  0  0  0  0  0
   20.0600   31.9400   59.2800 H   0  0  0  0  0  0  0  0  0  0  0  0
   19.5000   32.4000   57.7300 H   0  0  0  0  0  0  0  0  0  0  0  0
   22.4700   31.9000   59.7800 H   0  0  0  0  0  0  0  0  0  0  0  0
   24.7200   32.7100   59.1700 H   0  0  0  0  0  0  0  0  0  0  0  0
   25.1800   33.4600   56.8900 H   0  0  0  0  0  0  0  0  0  0  0  0
   21.0900   32.6500   55.8100 H   0  0  0  0  0  0  0  0  0  0  0  0
   26.0700   34.1300   52.7700 H   0  0  0  0  0  0  0  0  0  0  0  0
   24.0600   33.6900   48.7300 H   0  0  0  0  0  0  0  0  0  0  0  0
   22.7700   34.3500   49.6300 H   0  0  0  0  0  0  0  0  0  0  0  0
   21.7500   32.3500   49.7400 H   0  0  0  0  0  0  0  0  0  0  0  0
   23.0700   31.6400   50.6300 H   0  0  0  0  0  0  0  0  0  0  0  0
   22.2400   29.6100   49.4400 H   0  0  0  0  0  0  0  0  0  0  0  0
   21.1900   30.5400   48.3900 H   0  0  0  0  0  0  0  0  0  0  0  0
   21.9300   28.3600   47.3400 H   0  0  0  0  0  0  0  0  0  0  0  0
   22.3800   29.7400   46.3700 H   0  0  0  0  0  0  0  0  0  0  0  0
   25.8500   29.5000   47.5700 H   0  0  0  0  0  0  0  0  0  0  0  0
   24.8500   30.4600   46.5100 H   0  0  0  0  0  0  0  0  0  0  0  0
   24.7100   30.3400   49.5800 H   0  0  0  0  0  0  0  0  0  0  0  0
   25.2200   31.7000   48.6100 H   0  0  0  0  0  0  0  0  0  0  0  0
   21.9400   33.3900   51.8500 H   0  0  0  0  0  0  0  0  0  0  0  0
   19.5500   30.5500   53.9700 H   0  0  0  0  0  0  0  0  0  0  0  0
   18.8200   30.1800   51.6600 H   0  0  0  0  0  0  0  0  0  0  0  0
   17.5700   28.1600   51.0500 H   0  0  0  0  0  0  0  0  0  0  0  0
   17.7600   26.8000   55.1100 H   0  0  0  0  0  0  0  0  0  0  0  0
   23.0281   31.8557   47.7231 H   0  0  0  0  0  0  0  0  0  0  0  0
 24 54  1  0  0  0  0
 26 56  1  0  0  0  0
 24 53  1  0  0  0  0
 24 25  1  0  0  0  0
 23 24  1  0  0  0  0
 25 26  1  0  0  0  0
 26 55  1  0  0  0  0
 26 27  1  0  0  0  0
 23 52  1  0  0  0  0
 22 23  1  0  0  0  0
 23 51  1  0  0  0  0
 22 27  1  0  0  0  0
 21 22  1  0  0  0  0
 27 58  1  0  0  0  0
 27 57  1  0  0  0  0
 20 47  1  0  0  0  0
 20 48  1  0  0  0  0
 20 21  1  0  0  0  0
 19 20  1  0  0  0  0
 21 49  1  0  0  0  0
 21 50  1  0  0  0  0
 18 19  1  0  0  0  0
 33 62  1  0  0  0  0
 32 61  1  0  0  0  0
 28 59  1  0  0  0  0
 18 28  2  0  0  0  0
 17 18  1  0  0  0  0
 32 33  2  0  0  0  0
 33 34  1  0  0  0  0
 36 37  3  0  0  0  0
 31 32  1  0  0  0  0
 28 29  1  0  0  0  0
 34 36  1  0  0  0  0
 17 46  1  0  0  0  0
 16 17  2  0  0  0  0
 34 35  2  0  0  0  0
 31 60  1  0  0  0  0
 30 31  2  0  0  0  0
 15 29  2  0  0  0  0
 30 35  1  0  0  0  0
 35 63  1  0  0  0  0
 15 16  1  0  0  0  0
 13 15  1  0  0  0  0
  5 30  1  0  0  0  0
 14 45  1  0  0  0  0
  5  6  2  0  0  0  0
  4  5  1  0  0  0  0
 13 14  2  0  0  0  0
 12 13  1  0  0  0  0
  9 14  1  0  0  0  0
  6  7  1  0  0  0  0
  4 39  1  0  0  0  0
 12 44  1  0  0  0  0
  3  4  2  0  0  0  0
 11 12  2  0  0  0  0
  8 41  1  0  0  0  0
  8  9  1  0  0  0  0
  9 10  2  0  0  0  0
  7  8  1  0  0  0  0
  2  7  1  0  0  0  0
  8 40  1  0  0  0  0
  2  3  1  0  0  0  0
  3 38  1  0  0  0  0
 10 11  1  0  0  0  0
 11 43  1  0  0  0  0
 10 42  1  0  0  0  0
  1  2  2  0  0  0  0
 22 64  1  0  0  0  0
M  CHG  1  22   1
M  END
$$$$
