systems/pde2/lig_49585367/lig_49585367.pdb
 OpenBabel09231909243D

 58 62  0  0  0  0  0  0  0  0999 V2000
   -5.6290   26.5810   18.4330 C   0  0  0  0  0  0  0  0  0  0  0  0
   -5.6590   25.2090   18.7550 O   0  0  0  0  0  0  0  0  0  0  0  0
   -4.4260   24.5690   18.5170 C   0  0  0  0  0  0  0  0  0  0  0  0
   -4.5600   23.0460   18.3280 C   0  0  0  0  0  0  0  0  0  0  0  0
   -3.2900   22.4520   18.0510 O   0  0  0  0  0  0  0  0  0  0  0  0
   -2.3780   22.2610   19.0720 C   0  0  0  0  0  0  0  0  0  0  0  0
   -1.0750   21.9000   18.7190 C   0  0  0  0  0  0  0  0  0  0  0  0
   -0.0960   21.6390   19.6220 N   0  0  0  0  0  0  0  0  0  0  0  0
   -0.4090   21.7310   20.9380 C   0  0  0  0  0  0  0  0  0  0  0  0
   -2.6670   22.3670   20.4430 C   0  0  0  0  0  0  0  0  0  0  0  0
   -1.6780   22.0990   21.3940 C   0  0  0  0  0  0  0  0  0  0  0  0
   -2.0080   22.0870   22.8420 C   0  0  0  0  0  0  0  0  0  0  0  0
   -2.9560   21.3040   23.3160 N   0  0  0  0  0  0  0  0  0  0  0  0
   -2.9530   21.3360   24.6930 N   0  0  0  0  0  0  0  0  0  0  0  0
   -1.9680   22.1870   25.0440 C   0  0  0  0  0  0  0  0  0  0  0  0
   -1.4650   22.5800   26.2920 C   0  0  0  0  0  0  0  0  0  0  0  0
   -1.9850   22.0640   27.6200 C   0  0  0  0  0  0  0  0  0  0  0  0
   -0.4410   23.4620   26.3970 N   0  0  0  0  0  0  0  0  0  0  0  0
   -1.3710   22.7400   23.8950 N   0  0  0  0  0  0  0  0  0  0  0  0
   -0.3900   23.6820   23.9640 C   0  0  0  0  0  0  0  0  0  0  0  0
    0.1480   24.3760   22.8360 C   0  0  0  0  0  0  0  0  0  0  0  0
    1.1600   25.3300   23.0180 C   0  0  0  0  0  0  0  0  0  0  0  0
    1.6270   25.6100   24.3030 C   0  0  0  0  0  0  0  0  0  0  0  0
    1.1020   24.9720   25.4180 C   0  0  0  0  0  0  0  0  0  0  0  0
    0.0820   24.0150   25.2710 C   0  0  0  0  0  0  0  0  0  0  0  0
    1.7590   26.1290   21.8550 C   0  0  0  0  0  0  0  0  0  0  0  0
    2.5760   25.3940   20.8730 N   0  0  0  0  0  0  0  0  0  0  0  0
    3.1520   24.1380   21.3670 C   0  0  0  0  0  0  0  0  0  0  0  0
    4.0370   23.4730   20.2940 C   0  0  0  0  0  0  0  0  0  0  0  0
    5.0720   24.3580   19.8810 O   0  0  0  0  0  0  0  0  0  0  0  0
    4.5690   25.5870   19.3660 C   0  0  0  0  0  0  0  0  0  0  0  0
    3.6410   26.2860   20.3850 C   0  0  0  0  0  0  0  0  0  0  0  0
   -6.5860   27.0590   18.6410 H   0  0  0  0  0  0  0  0  0  0  0  0
   -4.8700   27.1080   19.0120 H   0  0  0  0  0  0  0  0  0  0  0  0
   -5.4140   26.7330   17.3760 H   0  0  0  0  0  0  0  0  0  0  0  0
   -3.7400   24.7810   19.3370 H   0  0  0  0  0  0  0  0  0  0  0  0
   -3.9690   24.9960   17.6220 H   0  0  0  0  0  0  0  0  0  0  0  0
   -5.1900   22.8480   17.4630 H   0  0  0  0  0  0  0  0  0  0  0  0
   -5.0740   22.5680   19.1620 H   0  0  0  0  0  0  0  0  0  0  0  0
   -0.7970   21.8030   17.6800 H   0  0  0  0  0  0  0  0  0  0  0  0
    0.3780   21.4800   21.6340 H   0  0  0  0  0  0  0  0  0  0  0  0
   -3.6550   22.6250   20.7890 H   0  0  0  0  0  0  0  0  0  0  0  0
   -1.1880   21.5780   28.1830 H   0  0  0  0  0  0  0  0  0  0  0  0
   -2.3850   22.8830   28.2180 H   0  0  0  0  0  0  0  0  0  0  0  0
   -2.7810   21.3320   27.4770 H   0  0  0  0  0  0  0  0  0  0  0  0
   -0.2280   24.1970   21.8420 H   0  0  0  0  0  0  0  0  0  0  0  0
    2.3980   26.3530   24.4490 H   0  0  0  0  0  0  0  0  0  0  0  0
    1.4530   25.2230   26.4080 H   0  0  0  0  0  0  0  0  0  0  0  0
    2.3490   26.9440   22.2800 H   0  0  0  0  0  0  0  0  0  0  0  0
    0.9370   26.6050   21.3200 H   0  0  0  0  0  0  0  0  0  0  0  0
    2.3430   23.4500   21.5950 H   0  0  0  0  0  0  0  0  0  0  0  0
    3.7170   24.2930   22.2860 H   0  0  0  0  0  0  0  0  0  0  0  0
    3.4360   23.1680   19.4360 H   0  0  0  0  0  0  0  0  0  0  0  0
    4.4760   22.5590   20.6910 H   0  0  0  0  0  0  0  0  0  0  0  0
    4.0460   25.4160   18.4230 H   0  0  0  0  0  0  0  0  0  0  0  0
    5.4120   26.2370   19.1300 H   0  0  0  0  0  0  0  0  0  0  0  0
    4.2480   26.6450   21.2190 H   0  0  0  0  0  0  0  0  0  0  0  0
    3.1990   27.1690   19.9230 H   0  0  0  0  0  0  0  0  0  0  0  0
  1  2  1  0  0  0  0
  1 33  1  0  0  0  0
  1 34  1  0  0  0  0
  1 35  1  0  0  0  0
  2  3  1  0  0  0  0
  3  4  1  0  0  0  0
  3 36  1  0  0  0  0
  3 37  1  0  0  0  0
  4  5  1  0  0  0  0
  4 38  1  0  0  0  0
  4 39  1  0  0  0  0
  5  6  1  0  0  0  0
  6  7  2  0  0  0  0
  6 10  1  0  0  0  0
  7  8  1  0  0  0  0
  7 40  1  0  0  0  0
  8  9  2  0  0  0  0
  9 11  1  0  0  0  0
  9 41  1  0  0  0  0
 10 11  2  0  0  0  0
 10 42  1  0  0  0  0
 11 12  1  0  0  0  0
 12 13  2  0  0  0  0
 12 19  1  0  0  0  0
 13 14  1  0  0  0  0
 14 15  2  0  0  0  0
 15 16  1  0  0  0  0
 15 19  1  0  0  0  0
 16 17  1  0  0  0  0
 16 18  2  0  0  0  0
 17 43  1  0  0  0  0
 17 44  1  0  0  0  0
 17 45  1  0  0  0  0
 18 25  1  0  0  0  0
 19 20  1  0  0  0  0
 20 21  2  0  0  0  0
 20 25  1  0  0  0  0
 21 22  1  0  0  0  0
 21 46  1  0  0  0  0
 22 23  2  0  0  0  0
 22 26  1  0  0  0  0
 23 24  1  0  0  0  0
 23 47  1  0  0  0  0
 24 25  2  0  0  0  0
 24 48  1  0  0  0  0
 26 27  1  0  0  0  0
 26 49  1  0  0  0  0
 26 50  1  0  0  0  0
 27 28  1  0  0  0  0
 27 32  1  0  0  0  0
 28 29  1  0  0  0  0
 28 51  1  0  0  0  0
 28 52  1  0  0  0  0
 29 30  1  0  0  0  0
 29 53  1  0  0  0  0
 29 54  1  0  0  0  0
 30 31  1  0  0  0  0
 31 32  1  0  0  0  0
 31 55  1  0  0  0  0
 31 56  1  0  0  0  0
 32 57  1  0  0  0  0
 32 58  1  0  0  0  0
M  END
$$$$
