lig_33_L
     RDKit          3D

 59 62  0  0  0  0  0  0  0  0999 V2000
   15.7960  -11.3020   17.4660 C   0  0  0  0  0  0  0  0  0  0  0  0
   16.3050  -12.6100   17.7360 O   0  0  0  0  0  0  0  0  0  0  0  0
   17.7170  -12.6300   17.5050 C   0  0  0  0  0  0  0  0  0  0  0  0
   15.9460  -10.8170   19.8010 O   0  0  0  0  0  0  0  0  0  0  0  0
    8.3330   -3.1610   15.8840 C   0  0  0  0  0  0  0  0  0  0  0  0
   17.3580  -11.0200   19.9060 C   0  0  0  0  0  0  0  0  0  0  0  0
   17.7460  -11.1750   21.3880 C   0  0  0  0  0  0  0  0  0  0  0  0
   18.0960   -9.8080   19.3060 C   0  0  0  0  0  0  0  0  0  0  0  0
   14.3490   -6.1890   18.8260 O   0  0  0  0  0  0  0  0  0  0  0  0
   15.4290   -5.3490   16.9710 N   0  0  0  0  0  0  0  0  0  0  0  0
   15.4910  -10.9380   16.2090 C   0  0  0  0  0  0  0  0  0  0  0  0
   14.8550   -6.7880   15.3480 N   0  0  0  0  0  0  0  0  0  0  0  0
   14.9940   -9.6730   15.9150 C   0  0  0  0  0  0  0  0  0  0  0  0
   16.4320   -5.1830   14.8490 N   0  0  0  0  0  0  0  0  0  0  0  0
   14.7990   -8.7380   16.9380 C   0  0  0  0  0  0  0  0  0  0  0  0
    9.8820   -2.9390   14.0970 N   0  0  0  0  0  0  0  0  0  0  0  0
   15.1230   -9.1390   18.2420 C   0  0  0  0  0  0  0  0  0  0  0  0
   15.6180  -10.4230   18.4660 C   0  0  0  0  0  0  0  0  0  0  0  0
   14.2470   -7.3370   16.6190 C   0  0  1  0  0  0  0  0  0  0  0  0
   14.6650   -6.2530   17.6450 C   0  0  0  0  0  0  0  0  0  0  0  0
   15.5450   -5.7480   15.6900 C   0  0  0  0  0  0  0  0  0  0  0  0
   16.0040   -4.1780   17.5850 C   0  0  0  0  0  0  0  0  0  0  0  0
   12.7180   -7.3670   16.5030 C   0  0  0  0  0  0  0  0  0  0  0  0
   11.9360   -8.4980   16.7650 C   0  0  0  0  0  0  0  0  0  0  0  0
   10.5480   -8.4390   16.6340 C   0  0  0  0  0  0  0  0  0  0  0  0
    9.9140   -7.2600   16.2460 C   0  0  0  0  0  0  0  0  0  0  0  0
   10.6620   -6.1100   15.9770 C   0  0  0  0  0  0  0  0  0  0  0  0
   12.0570   -6.1860   16.1130 C   0  0  0  0  0  0  0  0  0  0  0  0
   10.0240   -4.8560   15.5740 C   0  0  0  0  0  0  0  0  0  0  0  0
   10.4490   -4.1010   14.4970 C   0  0  0  0  0  0  0  0  0  0  0  0
    8.8380   -2.5170   14.8220 C   0  0  0  0  0  0  0  0  0  0  0  0
    8.9370   -4.3070   16.2330 C   0  0  0  0  0  0  0  0  0  0  0  0
    8.5450   -4.8450   17.0960 H   0  0  0  0  0  0  0  0  0  0  0  0
   16.2120   -4.3830   18.6350 H   0  0  0  0  0  0  0  0  0  0  0  0
   15.6370  -11.6530   15.3990 H   0  0  0  0  0  0  0  0  0  0  0  0
   19.1600  -10.0320   19.2300 H   0  0  0  0  0  0  0  0  0  0  0  0
   14.7560   -9.4090   14.8850 H   0  0  0  0  0  0  0  0  0  0  0  0
   14.9890   -8.4500   19.0760 H   0  0  0  0  0  0  0  0  0  0  0  0
   17.6370  -11.9210   19.3600 H   0  0  0  0  0  0  0  0  0  0  0  0
    8.3670   -1.5800   14.5230 H   0  0  0  0  0  0  0  0  0  0  0  0
   18.0540  -11.6320   17.2290 H   0  0  0  0  0  0  0  0  0  0  0  0
    9.9510   -9.3280   16.8380 H   0  0  0  0  0  0  0  0  0  0  0  0
   12.4130   -9.4280   17.0730 H   0  0  0  0  0  0  0  0  0  0  0  0
    8.8280   -7.2340   16.1520 H   0  0  0  0  0  0  0  0  0  0  0  0
   12.6520   -5.2960   15.9090 H   0  0  0  0  0  0  0  0  0  0  0  0
   11.3030   -4.4680   13.9280 H   0  0  0  0  0  0  0  0  0  0  0  0
    7.4760   -2.7740   16.4360 H   0  0  0  0  0  0  0  0  0  0  0  0
   15.3040   -3.3460   17.5080 H   0  0  0  0  0  0  0  0  0  0  0  0
   17.9440  -13.3280   16.6990 H   0  0  0  0  0  0  0  0  0  0  0  0
   18.7980  -11.4510   21.4610 H   0  0  0  0  0  0  0  0  0  0  0  0
   17.1330  -11.9510   21.8460 H   0  0  0  0  0  0  0  0  0  0  0  0
   17.5830  -10.2300   21.9060 H   0  0  0  0  0  0  0  0  0  0  0  0
   16.9320   -3.9200   17.0750 H   0  0  0  0  0  0  0  0  0  0  0  0
   18.2280  -12.9480   18.4140 H   0  0  0  0  0  0  0  0  0  0  0  0
   17.9520   -8.9400   19.9490 H   0  0  0  0  0  0  0  0  0  0  0  0
   17.6970   -9.5950   18.3140 H   0  0  0  0  0  0  0  0  0  0  0  0
   16.5710   -5.5710   13.9270 H   0  0  0  0  0  0  0  0  0  0  0  0
   16.9580   -4.3720   15.1400 H   0  0  0  0  0  0  0  0  0  0  0  0
   14.8144   -7.0709   14.3793 H   0  0  0  0  0  0  0  0  0  0  0  0
  1  2  1  0
  1 11  2  0
  1 18  1  0
  2  3  1  0
  3 41  1  0
  3 49  1  0
  3 54  1  0
  4  6  1  0
  4 18  1  0
  5 31  2  0
  5 32  1  0
  5 47  1  0
  6  7  1  0
  6  8  1  0
  6 39  1  0
  7 50  1  0
  7 51  1  0
  7 52  1  0
  8 36  1  0
  8 55  1  0
  8 56  1  0
  9 20  2  0
 10 20  1  0
 10 21  1  0
 10 22  1  0
 11 13  1  0
 11 35  1  0
 12 19  1  0
 12 21  2  0
 12 59  1  0
 13 15  2  0
 13 37  1  0
 14 21  1  0
 14 57  1  0
 14 58  1  0
 15 17  1  0
 19 15  1  1
 16 30  2  0
 16 31  1  0
 17 18  2  0
 17 38  1  0
 19 20  1  0
 19 23  1  0
 22 34  1  0
 22 48  1  0
 22 53  1  0
 23 24  2  0
 23 28  1  0
 24 25  1  0
 24 43  1  0
 25 26  2  0
 25 42  1  0
 26 27  1  0
 26 44  1  0
 27 28  2  0
 27 29  1  0
 28 45  1  0
 29 30  1  0
 29 32  2  0
 30 46  1  0
 31 40  1  0
 32 33  1  0
M  CHG  1  12   1
M  END
>  <s_m_entry_id>  (1) 
6

>  <s_m_entry_name>  (1) 
lig_33_L.1

>  <s_pdb_PDB_TITLE>  (1) 
MX MODEL

>  <i_pdb_PDB_Model>  (1) 
1

>  <s_pdb_PDB_format_version>  (1) 
3

>  <s_m_Source_Path>  (1) 
/projects/CNS/OGA/FEP_compare/PLBenchmarks/PLBenchmarks/data/2020-02-06_bace_p2/03_docked

>  <s_m_Source_File>  (1) 
lig_33_L.pdb

>  <i_m_Source_File_Index>  (1) 
1

$$$$
