lig_23466
     RDKit          3D

 29 30  0  0  0  0  0  0  0  0999 V2000
   39.1700   17.5100   12.7000 O   0  0  0  0  0  0  0  0  0  0  0  0
   40.3300   17.0300   12.6900 C   0  0  0  0  0  0  0  0  0  0  0  0
   41.2000   17.2700   11.8300 O   0  0  0  0  0  0  0  0  0  0  0  0
   40.7300   16.1100   13.8500 C   0  0  0  0  0  0  0  0  0  0  0  0
   42.0900   15.7300   13.7400 O   0  0  0  0  0  0  0  0  0  0  0  0
   42.5100   14.9200   14.7400 C   0  0  0  0  0  0  0  0  0  0  0  0
   42.1900   13.5700   14.8700 C   0  0  0  0  0  0  0  0  0  0  0  0
   41.2000   12.6500   13.5200 Br  0  0  0  0  0  0  0  0  0  0  0  0
   42.6200   12.9300   16.0200 C   0  0  0  0  0  0  0  0  0  0  0  0
   42.3400   11.5900   16.4800 C   0  0  0  0  0  0  0  0  0  0  0  0
   43.3700   10.7600   16.9500 C   0  0  0  0  0  0  0  0  0  0  0  0
   43.0900    9.4600   17.3700 C   0  0  0  0  0  0  0  0  0  0  0  0
   41.7800    8.9700   17.3100 C   0  0  0  0  0  0  0  0  0  0  0  0
   40.7400    9.7900   16.8400 C   0  0  0  0  0  0  0  0  0  0  0  0
   39.4000    9.3800   16.7700 N   0  0  0  0  0  0  0  0  0  0  0  0
   41.0300   11.0900   16.4500 C   0  0  0  0  0  0  0  0  0  0  0  0
   43.6400   14.0300   16.9200 S   0  0  0  0  0  0  0  0  0  0  0  0
   43.3700   15.3200   15.7700 C   0  0  0  0  0  0  0  0  0  0  0  0
   44.0500   16.6100   16.0400 C   0  0  0  0  0  0  0  0  0  0  0  0
   43.8800   17.5600   15.2400 O   0  0  0  0  0  0  0  0  0  0  0  0
   44.7800   16.7200   17.0500 O   0  0  0  0  0  0  0  0  0  0  0  0
   40.5600   16.6200   14.7900 H   0  0  0  0  0  0  0  0  0  0  0  0
   40.0700   15.2300   13.8200 H   0  0  0  0  0  0  0  0  0  0  0  0
   44.3800   11.1200   16.9900 H   0  0  0  0  0  0  0  0  0  0  0  0
   43.8800    8.8300   17.7400 H   0  0  0  0  0  0  0  0  0  0  0  0
   41.6000    7.9600   17.6500 H   0  0  0  0  0  0  0  0  0  0  0  0
   38.7500   10.0600   16.4100 H   0  0  0  0  0  0  0  0  0  0  0  0
   40.2300   11.7400   16.1100 H   0  0  0  0  0  0  0  0  0  0  0  0
   39.1400    8.4500   17.0700 H   0  0  0  0  0  0  0  0  0  0  0  0
  1  2  2  0
  2  3  1  0
  2  4  1  0
  4  5  1  0
  4 22  1  0
  4 23  1  0
  5  6  1  0
  6  7  1  0
  6 18  2  0
  7  8  1  0
  7  9  2  0
  9 10  1  0
  9 17  1  0
 10 11  2  0
 10 16  1  0
 11 12  1  0
 11 24  1  0
 12 13  2  0
 12 25  1  0
 13 14  1  0
 13 26  1  0
 14 15  1  0
 14 16  2  0
 15 27  1  0
 15 29  1  0
 16 28  1  0
 17 18  1  0
 18 19  1  0
 19 20  2  0
 19 21  1  0
M  CHG  2   3  -1  21  -1
M  END
$$$$
