CatS_144
 OpenBabel05281909343D

 89 93  0  0  1  0  0  0  0  0999 V2000
   -4.4861    7.5391   -5.7131 C   0  0  0  0  0  0  0  0  0  0  0  0
   -4.6603    6.7109   -4.6312 C   0  0  0  0  0  0  0  0  0  0  0  0
   -5.8699    6.6380   -3.9733 C   0  0  0  0  0  0  0  0  0  0  0  0
   -6.9108    7.4268   -4.4419 C   0  0  0  0  0  0  0  0  0  0  0  0
   -6.7442    8.2480   -5.5343 C   0  0  0  0  0  0  0  0  0  0  0  0
   -5.5264    8.3210   -6.1832 C   0  0  0  0  0  0  0  0  0  0  0  0
   -5.3731    9.2151   -7.3198 C   0  0  0  0  0  0  0  0  0  0  0  0
   -6.3012    9.5349   -8.3339 C   0  0  0  0  0  0  0  0  0  0  0  0
   -5.6320   10.3809   -9.1235 C   0  0  0  0  0  0  0  0  0  0  0  0
   -4.3650   10.6260   -8.6808 N   0  0  0  0  0  0  0  0  0  0  0  0
   -4.2576    9.8689   -7.5651 N   0  0  0  0  0  0  0  0  0  0  0  0
   -3.2820   11.5017   -9.1681 C   0  0  0  0  0  0  0  0  0  0  0  0
   -3.0352   12.9250   -8.6220 C   0  0  2  0  0  0  0  0  0  0  0  0
   -2.4583   12.8949   -7.1939 C   0  0  0  0  0  0  0  0  0  0  0  0
   -2.1131   14.2739   -6.7859 N   0  3  0  0  0  0  0  0  0  0  0  0
   -1.2460   14.9389   -7.7821 C   0  0  0  0  0  0  0  0  0  0  0  0
   -0.9278   16.3791   -7.3870 C   0  0  0  0  0  0  0  0  0  0  0  0
   -0.3051   16.4250   -5.9977 C   0  0  0  0  0  0  0  0  0  0  0  0
   -1.2029   15.7170   -4.9990 C   0  0  0  0  0  0  0  0  0  0  0  0
   -1.4792   14.2951   -5.4642 C   0  0  0  0  0  0  0  0  0  0  0  0
   -4.2609   13.6691   -8.5963 O   0  0  0  0  0  0  0  0  0  0  0  0
   -6.2651   10.9468  -10.3860 C   0  0  0  0  0  0  0  0  0  0  0  0
   -7.7958   10.7438  -10.4582 C   0  0  0  0  0  0  0  0  0  0  0  0
   -8.2500    9.4452   -9.9048 N   0  0  0  0  0  0  0  0  0  0  0  0
   -7.7317    9.0716   -8.5743 C   0  0  0  0  0  0  0  0  0  0  0  0
   -9.1622    8.6351  -10.4911 C   0  0  0  0  0  0  0  0  0  0  0  0
   -9.1647    7.4181  -10.3569 O   0  0  0  0  0  0  0  0  0  0  0  0
   -8.5189    7.4479   -3.6403 S   0  0  0  0  0  0  0  0  0  0  0  0
   -9.0884    9.1670   -3.5891 C   0  0  0  0  0  0  0  0  0  0  0  0
   -7.9859   10.0772   -3.0061 C   0  0  0  0  0  0  0  0  0  0  0  0
   -8.4741   11.0242   -1.9847 N   0  3  2  0  0  0  0  0  0  0  0  0
   -9.7344   11.6310   -2.4139 C   0  0  0  0  0  0  0  0  0  0  0  0
  -10.2923   12.5449   -1.3275 C   0  0  0  0  0  0  0  0  0  0  0  0
   -9.3059   13.6378   -0.9382 C   0  0  2  0  0  0  0  0  0  0  0  0
   -7.9538   13.0170   -0.6359 C   0  0  0  0  0  0  0  0  0  0  0  0
   -7.4938   12.0831   -1.7472 C   0  0  0  0  0  0  0  0  0  0  0  0
   -5.9540    5.6900   -2.7789 C   0  0  0  0  0  0  0  0  0  0  0  0
   -5.8198    6.3780   -1.5789 F   0  0  0  0  0  0  0  0  0  0  0  0
   -7.1848    5.0439   -2.7510 F   0  0  0  0  0  0  0  0  0  0  0  0
   -4.9793    4.6960   -2.7842 F   0  0  0  0  0  0  0  0  0  0  0  0
   -9.7173   14.1889    0.0451 F   0  0  0  0  0  0  0  0  0  0  0  0
   -9.8175    9.0193  -11.1326 C   0  0  1  0  0  0  0  0  0  0  0  0
  -10.4326    9.8737  -10.5431 O   0  0  0  0  0  0  0  0  0  0  0  0
   -9.1990    9.5588  -12.0083 C   0  0  0  0  0  0  0  0  0  0  0  0
  -10.3383    8.4887  -11.6078 H   0  0  0  0  0  0  0  0  0  0  0  0
   -9.1950   14.5602   -1.9738 H   0  0  0  0  0  0  0  0  0  0  0  0
   -2.2381   13.4759   -9.3290 H   0  0  0  0  0  0  0  0  0  0  0  0
   -3.5972    7.5729   -6.1659 H   0  0  0  0  0  0  0  0  0  0  0  0
   -3.8921    6.1560   -4.3163 H   0  0  0  0  0  0  0  0  0  0  0  0
   -7.5099    8.8058   -5.8540 H   0  0  0  0  0  0  0  0  0  0  0  0
   -2.2558   10.8948   -9.0270 H   0  0  0  0  0  0  0  0  0  0  0  0
   -3.4736   11.6017  -10.3480 H   0  0  0  0  0  0  0  0  0  0  0  0
   -3.2398   12.3630   -6.4550 H   0  0  0  0  0  0  0  0  0  0  0  0
   -1.4851   12.1940   -7.2512 H   0  0  0  0  0  0  0  0  0  0  0  0
   -0.2439   14.3009   -7.9562 H   0  0  0  0  0  0  0  0  0  0  0  0
   -1.8487   14.9610   -8.8192 H   0  0  0  0  0  0  0  0  0  0  0  0
   -0.1581   16.8701   -8.1651 H   0  0  0  0  0  0  0  0  0  0  0  0
   -1.9400   17.0230   -7.3741 H   0  0  0  0  0  0  0  0  0  0  0  0
   -0.1761   17.5700   -5.6630 H   0  0  0  0  0  0  0  0  0  0  0  0
    0.7699   15.8919   -6.0171 H   0  0  0  0  0  0  0  0  0  0  0  0
   -2.2421   16.3121   -4.9179 H   0  0  0  0  0  0  0  0  0  0  0  0
   -0.6709   15.7251   -3.9251 H   0  0  0  0  0  0  0  0  0  0  0  0
   -0.4576   13.6637   -5.4442 H   0  0  0  0  0  0  0  0  0  0  0  0
   -2.2314   13.8077   -4.6657 H   0  0  0  0  0  0  0  0  0  0  0  0
   -4.1119   14.6072   -8.2652 H   0  0  0  0  0  0  0  0  0  0  0  0
   -6.0529   12.1223  -10.4689 H   0  0  0  0  0  0  0  0  0  0  0  0
   -5.7722   10.3861  -11.3250 H   0  0  0  0  0  0  0  0  0  0  0  0
   -8.1117   10.9421  -11.5963 H   0  0  0  0  0  0  0  0  0  0  0  0
   -8.3139   11.5920   -9.7849 H   0  0  0  0  0  0  0  0  0  0  0  0
   -8.4471    9.5699   -7.7480 H   0  0  0  0  0  0  0  0  0  0  0  0
   -7.7661    7.8779   -8.4603 H   0  0  0  0  0  0  0  0  0  0  0  0
  -10.0801    9.2619   -2.9211 H   0  0  0  0  0  0  0  0  0  0  0  0
   -9.3421    9.4982   -4.7151 H   0  0  0  0  0  0  0  0  0  0  0  0
   -7.1079    9.4011   -2.5439 H   0  0  0  0  0  0  0  0  0  0  0  0
   -7.5293   10.7101   -3.9189 H   0  0  0  0  0  0  0  0  0  0  0  0
  -10.5092   10.7478   -2.6622 H   0  0  0  0  0  0  0  0  0  0  0  0
   -9.5521   12.2630   -3.4192 H   0  0  0  0  0  0  0  0  0  0  0  0
  -11.2778   13.0981   -1.7303 H   0  0  0  0  0  0  0  0  0  0  0  0
  -10.5780   11.9109   -0.3480 H   0  0  0  0  0  0  0  0  0  0  0  0
   -8.0539   12.4063    0.3930 H   0  0  0  0  0  0  0  0  0  0  0  0
   -7.1289   13.8769   -0.4889 H   0  0  0  0  0  0  0  0  0  0  0  0
   -7.3410   12.7000   -2.7653 H   0  0  0  0  0  0  0  0  0  0  0  0
   -6.4351   11.6082   -1.4361 H   0  0  0  0  0  0  0  0  0  0  0  0
   -2.8878   14.7485   -6.7176 H   0  0  0  0  0  0  0  0  0  0  0  0
   -8.6153   10.5657   -1.2094 H   0  0  0  0  0  0  0  0  0  0  0  0
  -10.8911    9.5143   -9.7206 H   0  0  0  0  0  0  0  0  0  0  0  0
   -8.0563    9.1897  -12.1753 H   0  0  0  0  0  0  0  0  0  0  0  0
   -9.4559    9.0746  -13.0889 H   0  0  0  0  0  0  0  0  0  0  0  0
   -9.6922   10.6042  -12.3733 H   0  0  0  0  0  0  0  0  0  0  0  0
  2  1  2  0  0  0  0
  3  2  1  0  0  0  0
  4  3  2  0  0  0  0
  5  4  1  0  0  0  0
  6  1  1  0  0  0  0
  6  5  2  0  0  0  0
  7  6  1  0  0  0  0
  8  7  1  0  0  0  0
  9  8  2  0  0  0  0
 10  9  1  0  0  0  0
 11  7  2  0  0  0  0
 11 10  1  0  0  0  0
 12 10  1  0  0  0  0
 13 12  1  0  0  0  0
 13 47  1  6  0  0  0
 14 13  1  0  0  0  0
 15 14  1  0  0  0  0
 16 15  1  0  0  0  0
 17 16  1  0  0  0  0
 18 17  1  0  0  0  0
 19 18  1  0  0  0  0
 20 15  1  0  0  0  0
 20 19  1  0  0  0  0
 21 13  1  0  0  0  0
 22  9  1  0  0  0  0
 23 22  1  0  0  0  0
 24 23  1  0  0  0  0
 25  8  1  0  0  0  0
 25 24  1  0  0  0  0
 26 24  1  0  0  0  0
 26 42  1  0  0  0  0
 27 26  2  0  0  0  0
 28  4  1  0  0  0  0
 29 28  1  0  0  0  0
 30 29  1  0  0  0  0
 31 30  1  0  0  0  0
 31 85  1  1  0  0  0
 32 31  1  0  0  0  0
 33 32  1  0  0  0  0
 34 33  1  0  0  0  0
 34 46  1  6  0  0  0
 35 34  1  0  0  0  0
 36 31  1  0  0  0  0
 36 35  1  0  0  0  0
 37  3  1  0  0  0  0
 38 37  1  0  0  0  0
 39 37  1  0  0  0  0
 40 37  1  0  0  0  0
 41 34  1  0  0  0  0
 42 43  1  0  0  0  0
 42 44  1  0  0  0  0
 42 45  1  6  0  0  0
 43 86  1  0  0  0  0
 44 87  1  0  0  0  0
 44 88  1  0  0  0  0
 44 89  1  0  0  0  0
 48  1  1  0  0  0  0
 49  2  1  0  0  0  0
 50  5  1  0  0  0  0
 51 12  1  0  0  0  0
 52 12  1  0  0  0  0
 53 14  1  0  0  0  0
 54 14  1  0  0  0  0
 55 16  1  0  0  0  0
 56 16  1  0  0  0  0
 57 17  1  0  0  0  0
 58 17  1  0  0  0  0
 59 18  1  0  0  0  0
 60 18  1  0  0  0  0
 61 19  1  0  0  0  0
 62 19  1  0  0  0  0
 63 20  1  0  0  0  0
 64 20  1  0  0  0  0
 65 21  1  0  0  0  0
 66 22  1  0  0  0  0
 67 22  1  0  0  0  0
 68 23  1  0  0  0  0
 69 23  1  0  0  0  0
 70 25  1  0  0  0  0
 71 25  1  0  0  0  0
 72 29  1  0  0  0  0
 73 29  1  0  0  0  0
 74 30  1  0  0  0  0
 75 30  1  0  0  0  0
 76 32  1  0  0  0  0
 77 32  1  0  0  0  0
 78 33  1  0  0  0  0
 79 33  1  0  0  0  0
 80 35  1  0  0  0  0
 81 35  1  0  0  0  0
 82 36  1  0  0  0  0
 83 36  1  0  0  0  0
 84 15  1  0  0  0  0
M  CHG  2  15   1  31   1
M  END
$$$$
