# Molecule written by the XED library from Cresset
@<TRIPOS>MOLECULE
CatS_144
    89     93      1
SMALL
USER_CHARGES
@<TRIPOS>ATOM
      1  C1         -4.4861    7.5391   -5.7131 C.ar      1 MOL1       -0.0846
      2  C2         -4.6603    6.7109   -4.6312 C.ar      1 MOL1       -0.0687
      3  C3         -5.8699    6.6380   -3.9733 C.ar      1 MOL1        0.0171
      4  C4         -6.9108    7.4268   -4.4419 C.ar      1 MOL1        0.0480
      5  C5         -6.7442    8.2480   -5.5343 C.ar      1 MOL1       -0.0655
      6  C6         -5.5264    8.3210   -6.1832 C.ar      1 MOL1       -0.0066
      7  C7         -5.3731    9.2151   -7.3198 C.ar      1 MOL1        0.0391
      8  C8         -6.3012    9.5349   -8.3339 C.ar      1 MOL1       -0.0691
      9  C9         -5.6320   10.3809   -9.1235 C.ar      1 MOL1        0.0571
     10  N1         -4.3650   10.6260   -8.6808 N.pl3     1 MOL1       -0.0670
     11  N2         -4.2576    9.8689   -7.5651 N.2       1 MOL1       -0.2943
     12  C10        -3.2820   11.5017   -9.1681 C.3       1 MOL1        0.0979
     13  C11        -3.0352   12.9250   -8.6220 C.3       1 MOL1        0.0191
     14  C12        -2.4583   12.8949   -7.1939 C.3       1 MOL1       -0.0328
     15  N3         -2.1131   14.2739   -6.7859 N.4       1 MOL1       -0.2283
     16  C13        -1.2460   14.9389   -7.7821 C.3       1 MOL1       -0.0630
     17  C14        -0.9278   16.3791   -7.3870 C.3       1 MOL1       -0.0834
     18  C15        -0.3051   16.4250   -5.9977 C.3       1 MOL1       -0.0872
     19  C16        -1.2029   15.7170   -4.9990 C.3       1 MOL1       -0.0834
     20  C17        -1.4792   14.2951   -5.4642 C.3       1 MOL1       -0.0630
     21  O1         -4.2609   13.6691   -8.5963 O.3       1 MOL1       -0.4408
     22  C18        -6.2651   10.9468  -10.3860 C.3       1 MOL1       -0.0166
     23  C19        -7.7958   10.7438  -10.4582 C.3       1 MOL1        0.0798
     24  N4         -8.2500    9.4452   -9.9048 N.am      1 MOL1       -0.3943
     25  C20        -7.7317    9.0716   -8.5743 C.3       1 MOL1        0.1145
     26  C21        -9.1622    8.6351  -10.4911 C.2       1 MOL1        0.2964
     27  O2         -9.1647    7.4181  -10.3569 O.2       1 MOL1       -0.4159
     28  S1         -8.5189    7.4479   -3.6403 S.3       1 MOL1       -0.1783
     29  C26        -9.0884    9.1670   -3.5891 C.3       1 MOL1       -0.0087
     30  C27        -7.9859   10.0772   -3.0061 C.3       1 MOL1       -0.0441
     31  N5         -8.4741   11.0242   -1.9847 N.4       1 MOL1       -0.2284
     32  C28        -9.7344   11.6310   -2.4139 C.3       1 MOL1       -0.0566
     33  C29       -10.2923   12.5449   -1.3275 C.3       1 MOL1       -0.0467
     34  C30        -9.3059   13.6378   -0.9382 C.3       1 MOL1        0.0498
     35  C31        -7.9538   13.0170   -0.6359 C.3       1 MOL1       -0.0467
     36  C32        -7.4938   12.0831   -1.7472 C.3       1 MOL1       -0.0566
     37  C33        -5.9540    5.6900   -2.7789 C.3       1 MOL1        0.4149
     38  F2         -5.8198    6.3780   -1.5789 F         1 MOL1       -0.1514
     39  F3         -7.1848    5.0439   -2.7510 F         1 MOL1       -0.1514
     40  F4         -4.9793    4.6960   -2.7842 F         1 MOL1       -0.1514
     41  H41        -9.7173   14.1889    0.0451 F         1 MOL1       -0.2169
     42  H          -9.8175    9.0193  -11.1326 C.3       1 MOL1        0.0620
     43  H         -10.4326    9.8737  -10.5431 O.3       1 MOL1       -0.4307
     44  H          -9.1990    9.5588  -12.0083 C.3       1 MOL1       -0.0828
     45  H         -10.3383    8.4887  -11.6078 H         1 MOL1        0.0719
     46  H          -9.1950   14.5602   -1.9738 H         1 MOL1        0.0735
     47  H1         -2.2381   13.4759   -9.3290 H         1 MOL1        0.0680
     48  H2         -3.5972    7.5729   -6.1659 H         1 MOL1        0.0910
     49  H3         -3.8921    6.1560   -4.3163 H         1 MOL1        0.0908
     50  H4         -7.5099    8.8058   -5.8540 H         1 MOL1        0.0929
     51  H5         -2.2558   10.8948   -9.0270 H         1 MOL1        0.0624
     52  H6         -3.4736   11.6017  -10.3480 H         1 MOL1        0.0624
     53  H7         -3.2398   12.3630   -6.4550 H         1 MOL1        0.0549
     54  H8         -1.4851   12.1940   -7.2512 H         1 MOL1        0.0549
     55  H9         -0.2439   14.3009   -7.9562 H         1 MOL1        0.0529
     56  H10        -1.8487   14.9610   -8.8192 H         1 MOL1        0.0529
     57  H11        -0.1581   16.8701   -8.1651 H         1 MOL1        0.0467
     58  H12        -1.9400   17.0230   -7.3741 H         1 MOL1        0.0467
     59  H13        -0.1761   17.5700   -5.6630 H         1 MOL1        0.0460
     60  H14         0.7699   15.8919   -6.0171 H         1 MOL1        0.0460
     61  H15        -2.2421   16.3121   -4.9179 H         1 MOL1        0.0467
     62  H16        -0.6709   15.7251   -3.9251 H         1 MOL1        0.0467
     63  H17        -0.4576   13.6637   -5.4442 H         1 MOL1        0.0529
     64  H18        -2.2314   13.8077   -4.6657 H         1 MOL1        0.0529
     65  H19        -4.1119   14.6072   -8.2652 H         1 MOL1        0.3291
     66  H20        -6.0529   12.1223  -10.4689 H         1 MOL1        0.0516
     67  H21        -5.7722   10.3861  -11.3250 H         1 MOL1        0.0516
     68  H22        -8.1117   10.9421  -11.5963 H         1 MOL1        0.0595
     69  H23        -8.3139   11.5920   -9.7849 H         1 MOL1        0.0595
     70  H24        -8.4471    9.5699   -7.7480 H         1 MOL1        0.0622
     71  H25        -7.7661    7.8779   -8.4603 H         1 MOL1        0.0622
     72  H33       -10.0801    9.2619   -2.9211 H         1 MOL1        0.0553
     73  H34        -9.3421    9.4982   -4.7151 H         1 MOL1        0.0553
     74  H35        -7.1079    9.4011   -2.5439 H         1 MOL1        0.0547
     75  H36        -7.5293   10.7101   -3.9189 H         1 MOL1        0.0547
     76  H37       -10.5092   10.7478   -2.6622 H         1 MOL1        0.0529
     77  H38        -9.5521   12.2630   -3.4192 H         1 MOL1        0.0529
     78  H39       -11.2778   13.0981   -1.7303 H         1 MOL1        0.0497
     79  H40       -10.5780   11.9109   -0.3480 H         1 MOL1        0.0497
     80  H42        -8.0539   12.4063    0.3930 H         1 MOL1        0.0497
     81  H43        -7.1289   13.8769   -0.4889 H         1 MOL1        0.0497
     82  H44        -7.3410   12.7000   -2.7653 H         1 MOL1        0.0529
     83  H45        -6.4351   11.6082   -1.4361 H         1 MOL1        0.0529
     84  H          -2.8878   14.7485   -6.7176 H         1 MOL1        0.1921
     85  H          -8.6153   10.5657   -1.2094 H         1 MOL1        0.1921
     86  H         -10.8911    9.5143   -9.7206 H         1 MOL1        0.3291
     87  H          -8.0563    9.1897  -12.1753 H         1 MOL1        0.0457
     88  H          -9.4559    9.0746  -13.0889 H         1 MOL1        0.0457
     89  H          -9.6922   10.6042  -12.3733 H         1 MOL1        0.0457
@<TRIPOS>BOND
     1      2      1 ar
     2      3      2 ar
     3      4      3 ar
     4      5      4 ar
     5      6      1 ar
     6      6      5 ar
     7      7      6 1 
     8      8      7 ar
     9      9      8 ar
    10     10      9 ar
    11     11      7 ar
    12     11     10 ar
    13     12     10 1 
    14     13     12 1 
    15     14     13 1 
    16     15     14 1 
    17     16     15 1 
    18     17     16 1 
    19     18     17 1 
    20     19     18 1 
    21     20     15 1 
    22     20     19 1 
    23     21     13 1 
    24     22      9 1 
    25     23     22 1 
    26     24     23 1 
    27     25      8 1 
    28     25     24 1 
    29     26     24 am
    30     26     42 1 
    31     27     26 2 
    32     28      4 1 
    33     29     28 1 
    34     30     29 1 
    35     31     30 1 
    36     32     31 1 
    37     33     32 1 
    38     34     33 1 
    39     35     34 1 
    40     36     31 1 
    41     36     35 1 
    42     37      3 1 
    43     38     37 1 
    44     39     37 1 
    45     40     37 1 
    46     41     34 1 
    47     42     43 1 
    48     42     44 1 
    49     42     45 1 
    50     43     86 1 
    51     44     87 1 
    52     44     88 1 
    53     44     89 1 
    54     46     34 1 
    55     47     13 1 
    56     48      1 1 
    57     49      2 1 
    58     50      5 1 
    59     51     12 1 
    60     52     12 1 
    61     53     14 1 
    62     54     14 1 
    63     55     16 1 
    64     56     16 1 
    65     57     17 1 
    66     58     17 1 
    67     59     18 1 
    68     60     18 1 
    69     61     19 1 
    70     62     19 1 
    71     63     20 1 
    72     64     20 1 
    73     65     21 1 
    74     66     22 1 
    75     67     22 1 
    76     68     23 1 
    77     69     23 1 
    78     70     25 1 
    79     71     25 1 
    80     72     29 1 
    81     73     29 1 
    82     74     30 1 
    83     75     30 1 
    84     76     32 1 
    85     77     32 1 
    86     78     33 1 
    87     79     33 1 
    88     80     35 1 
    89     81     35 1 
    90     82     36 1 
    91     83     36 1 
    92     84     15 1 
    93     85     31 1 
@<TRIPOS>SUBSTRUCTURE
     1 MOL1         1 MOLECULE          1 A
