@<TRIPOS>MOLECULE
3a
 55 57 0 0 0
SMALL
GASTEIGER

@<TRIPOS>ATOM
      1 N          18.2650  -13.2410   21.7060 N.am    1  LIG1       -0.2853
      2 C          18.0670  -11.9440   21.0290 C.3     1  LIG1        0.1024
      3 C          17.3960  -13.7800   22.5960 C.2     1  LIG1        0.2646
      4 O          16.3980  -13.1680   22.9800 O.2     1  LIG1       -0.2694
      5 C          16.6630  -11.7540   20.4060 C.2     1  LIG1        0.2338
      6 O          16.1640  -12.6470   19.7190 O.2     1  LIG1       -0.2738
      7 C          19.1630  -11.8940   19.9560 C.3     1  LIG1       -0.0243
      8 C          17.6500  -15.1800   23.1880 C.3     1  LIG1        0.0574
      9 N          16.0420  -10.5940   20.6500 N.am    1  LIG1       -0.3097
     10 C          20.2630  -12.8150   20.4460 C.3     1  LIG1       -0.0350
     11 N          16.4090  -15.9680   23.1110 N.4     1  LIG1        0.2276
     12 C          18.1360  -15.1120   24.6550 C.3     1  LIG1        0.0241
     13 C          14.7040  -10.2160   20.2150 C.3     1  LIG1        0.0369
     14 C          19.5460  -13.8410   21.3150 C.3     1  LIG1        0.0157
     15 C          19.5610  -14.6150   24.8270 C.ar    1  LIG1       -0.0415
     16 C          13.6410  -10.3570   21.2910 C.ar    1  LIG1       -0.0301
     17 C          19.8040  -13.3100   25.2930 C.ar    1  LIG1       -0.0584
     18 C          12.9050  -11.5530   21.4230 C.ar    1  LIG1       -0.0571
     19 C          21.1140  -12.8170   25.3980 C.ar    1  LIG1       -0.0615
     20 C          11.8940  -11.6570   22.4010 C.ar    1  LIG1       -0.0612
     21 C          22.2000  -13.6410   25.0540 C.ar    1  LIG1       -0.0617
     22 C          11.6200  -10.5700   23.2550 C.ar    1  LIG1       -0.0588
     23 C          21.9700  -14.9620   24.6260 C.ar    1  LIG1       -0.0615
     24 C          12.3720   -9.3840   23.1460 C.ar    1  LIG1       -0.0501
     25 C          20.6530  -15.4490   24.5110 C.ar    1  LIG1       -0.0584
     26 C          13.3730   -9.2780   22.1610 C.ar    1  LIG1       -0.0542
     27 H          18.2470  -11.1610   21.7640 H       1  LIG1        0.0597
     28 H          18.7920  -12.2520   18.9940 H       1  LIG1        0.0288
     29 H          19.5370  -10.8860   19.8140 H       1  LIG1        0.0288
     30 H          18.3780  -15.7340   22.5980 H       1  LIG1        0.0952
     31 H          16.5620   -9.8920   21.1770 H       1  LIG1        0.1491
     32 H          20.8310  -13.2710   19.6330 H       1  LIG1        0.0281
     33 H          20.9660  -12.2500   21.0590 H       1  LIG1        0.0281
     34 H          16.5520  -16.8840   23.5090 H       1  LIG1        0.2002
     35 H          15.6840  -15.4790   23.6230 H       1  LIG1        0.2002
     36 H          16.1250  -16.0520   22.1460 H       1  LIG1        0.2002
     37 H          17.4590  -14.4910   25.2460 H       1  LIG1        0.0373
     38 H          18.0850  -16.1040   25.1050 H       1  LIG1        0.0373
     39 H          14.7420   -9.1640   19.9390 H       1  LIG1        0.0512
     40 H          14.4050  -10.7640   19.3190 H       1  LIG1        0.0512
     41 H          20.1630  -14.1040   22.1720 H       1  LIG1        0.0465
     42 H          19.3600  -14.7480   20.7370 H       1  LIG1        0.0465
     43 H          18.9900  -12.6790   25.5930 H       1  LIG1        0.0620
     44 H          13.1150  -12.3910   20.7740 H       1  LIG1        0.0621
     45 H          21.2720  -11.8120   25.7590 H       1  LIG1        0.0618
     46 H          11.3290  -12.5740   22.5020 H       1  LIG1        0.0618
     47 H          23.2100  -13.2680   25.1380 H       1  LIG1        0.0618
     48 H          22.8080  -15.6010   24.3850 H       1  LIG1        0.0618
     49 C          12.1350   -8.2180   24.1240 C.3     1  LIG1       -0.0397
     50 H          20.4890  -16.4600   24.1660 H       1  LIG1        0.0620
     51 H          13.9510   -8.3700   22.0900 H       1  LIG1        0.0623
     52 H          10.8470  -10.6550   24.0060 H       1  LIG1        0.0620
     53 H          12.8090   -7.3960   23.8800 H       1  LIG1        0.0278
     54 H          11.1030   -7.8780   24.0410 H       1  LIG1        0.0278
     55 H          12.3260   -8.5530   25.1430 H       1  LIG1        0.0278
@<TRIPOS>BOND
     1     1     2    1
     2     1    14    1
     3     1     3   am
     4     2     5    1
     5     2     7    1
     6     2    27    1
     7     3     8    1
     8     3     4    2
     9     5     6    2
    10     5     9   am
    11     7    10    1
    12     7    28    1
    13     7    29    1
    14     8    11    1
    15     8    12    1
    16     8    30    1
    17     9    13    1
    18     9    31    1
    19    10    14    1
    20    10    32    1
    21    10    33    1
    22    11    34    1
    23    11    35    1
    24    11    36    1
    25    12    15    1
    26    12    37    1
    27    12    38    1
    28    13    16    1
    29    13    39    1
    30    13    40    1
    31    14    41    1
    32    14    42    1
    33    15    17   ar
    34    15    25   ar
    35    16    18   ar
    36    16    26   ar
    37    17    19   ar
    38    17    43    1
    39    18    20   ar
    40    18    44    1
    41    19    21   ar
    42    19    45    1
    43    20    22   ar
    44    20    46    1
    45    21    23   ar
    46    21    47    1
    47    22    24   ar
    48    22    52    1
    49    23    25   ar
    50    23    48    1
    51    24    26   ar
    52    24    49    1
    53    25    50    1
    54    26    51    1
    55    49    53    1
    56    49    54    1
    57    49    55    1
