@<TRIPOS>MOLECULE
1c
 52 54 0 0 0
SMALL
GASTEIGER

@<TRIPOS>ATOM
      1 N          18.2570  -13.2370   21.7050 N.am    1  LIG1       -0.2853
      2 C          18.0560  -11.9400   21.0290 C.3     1  LIG1        0.1024
      3 C          17.3900  -13.7780   22.5950 C.2     1  LIG1        0.2646
      4 O          16.3920  -13.1670   22.9800 O.2     1  LIG1       -0.2694
      5 C          16.6510  -11.7490   20.4070 C.2     1  LIG1        0.2338
      6 O          16.1520  -12.6410   19.7200 O.2     1  LIG1       -0.2738
      7 C          19.1520  -11.8880   19.9550 C.3     1  LIG1       -0.0243
      8 C          17.6450  -15.1780   23.1860 C.3     1  LIG1        0.0574
      9 N          16.0300  -10.5890   20.6540 N.am    1  LIG1       -0.3097
     10 C          20.2530  -12.8090   20.4420 C.3     1  LIG1       -0.0350
     11 N          16.4040  -15.9670   23.1090 N.4     1  LIG1        0.2276
     12 C          18.1320  -15.1110   24.6520 C.3     1  LIG1        0.0241
     13 C          14.6910  -10.2120   20.2220 C.3     1  LIG1        0.0369
     14 C          19.5370  -13.8370   21.3110 C.3     1  LIG1        0.0157
     15 C          19.5570  -14.6140   24.8230 C.ar    1  LIG1       -0.0415
     16 C          13.6300  -10.3470   21.3020 C.ar    1  LIG1       -0.0293
     17 C          19.8010  -13.3110   25.2950 C.ar    1  LIG1       -0.0584
     18 C          12.8880  -11.5390   21.4360 C.ar    1  LIG1       -0.0570
     19 C          21.1110  -12.8180   25.4000 C.ar    1  LIG1       -0.0615
     20 C          11.8800  -11.6380   22.4170 C.ar    1  LIG1       -0.0604
     21 C          22.1970  -13.6400   25.0520 C.ar    1  LIG1       -0.0617
     22 C          11.6150  -10.5490   23.2730 C.ar    1  LIG1       -0.0477
     23 C          21.9670  -14.9600   24.6180 C.ar    1  LIG1       -0.0615
     24 C          12.3730   -9.3680   23.1620 C.ar    1  LIG1        0.0182
     25 C          20.6500  -15.4470   24.5020 C.ar    1  LIG1       -0.0584
     26 C          13.3710   -9.2680   22.1730 C.ar    1  LIG1       -0.0431
     27 H          18.2370  -11.1570   21.7650 H       1  LIG1        0.0597
     28 H          18.7800  -12.2420   18.9920 H       1  LIG1        0.0288
     29 H          19.5260  -10.8800   19.8180 H       1  LIG1        0.0288
     30 H          18.3730  -15.7310   22.5930 H       1  LIG1        0.0952
     31 H          16.5520   -9.8880   21.1800 H       1  LIG1        0.1491
     32 H          20.8190  -13.2640   19.6280 H       1  LIG1        0.0281
     33 H          20.9570  -12.2460   21.0550 H       1  LIG1        0.0281
     34 H          16.5490  -16.8840   23.5060 H       1  LIG1        0.2002
     35 H          15.6800  -15.4790   23.6220 H       1  LIG1        0.2002
     36 H          16.1190  -16.0510   22.1440 H       1  LIG1        0.2002
     37 H          17.4560  -14.4920   25.2440 H       1  LIG1        0.0373
     38 H          18.0820  -16.1040   25.1010 H       1  LIG1        0.0373
     39 H          14.7290   -9.1610   19.9410 H       1  LIG1        0.0512
     40 H          14.3890  -10.7640   19.3290 H       1  LIG1        0.0512
     41 H          20.1550  -14.1000   22.1680 H       1  LIG1        0.0465
     42 H          19.3510  -14.7430   20.7330 H       1  LIG1        0.0465
     43 H          18.9870  -12.6820   25.5980 H       1  LIG1        0.0620
     44 H          13.0910  -12.3790   20.7860 H       1  LIG1        0.0621
     45 H          21.2680  -11.8150   25.7650 H       1  LIG1        0.0618
     46 H          11.3110  -12.5520   22.5210 H       1  LIG1        0.0618
     47 H          23.2060  -13.2680   25.1370 H       1  LIG1        0.0618
     48 H          22.8040  -15.5980   24.3730 H       1  LIG1        0.0618
     49 BR         12.0950   -7.9250   24.3750 Br      1  LIG1       -0.0503
     50 H          20.4850  -16.4560   24.1530 H       1  LIG1        0.0620
     51 H          13.9530   -8.3620   22.1010 H       1  LIG1        0.0632
     52 H          10.8450  -10.6300   24.0280 H       1  LIG1        0.0629
@<TRIPOS>BOND
     1     1     2    1
     2     1    14    1
     3     1     3   am
     4     2     5    1
     5     2     7    1
     6     2    27    1
     7     3     8    1
     8     3     4    2
     9     5     6    2
    10     5     9   am
    11     7    10    1
    12     7    28    1
    13     7    29    1
    14     8    11    1
    15     8    12    1
    16     8    30    1
    17     9    13    1
    18     9    31    1
    19    10    14    1
    20    10    32    1
    21    10    33    1
    22    11    34    1
    23    11    35    1
    24    11    36    1
    25    12    15    1
    26    12    37    1
    27    12    38    1
    28    13    16    1
    29    13    39    1
    30    13    40    1
    31    14    41    1
    32    14    42    1
    33    15    17   ar
    34    15    25   ar
    35    16    18   ar
    36    16    26   ar
    37    17    19   ar
    38    17    43    1
    39    18    20   ar
    40    18    44    1
    41    19    21   ar
    42    19    45    1
    43    20    22   ar
    44    20    46    1
    45    21    23   ar
    46    21    47    1
    47    22    24   ar
    48    22    52    1
    49    23    25   ar
    50    23    48    1
    51    24    26   ar
    52    24    49    1
    53    25    50    1
    54    26    51    1
