7a
  -OEChem-09261917143D

 58 60  0     1  0  0  0  0  0999 V2000
   18.2650  -13.2410   21.7060 N   0  0  0  0  0  0  0  0  0  0  0  0
   18.0670  -11.9440   21.0290 C   0  0  2  0  0  0  0  0  0  0  0  0
   17.3960  -13.7800   22.5960 C   0  0  0  0  0  0  0  0  0  0  0  0
   16.3980  -13.1680   22.9800 O   0  0  0  0  0  0  0  0  0  0  0  0
   16.6630  -11.7540   20.4060 C   0  0  0  0  0  0  0  0  0  0  0  0
   16.1640  -12.6470   19.7190 O   0  0  0  0  0  0  0  0  0  0  0  0
   19.1630  -11.8940   19.9560 C   0  0  0  0  0  0  0  0  0  0  0  0
   17.6500  -15.1800   23.1880 C   0  0  2  0  0  0  0  0  0  0  0  0
   16.0420  -10.5940   20.6500 N   0  0  0  0  0  0  0  0  0  0  0  0
   20.2630  -12.8150   20.4460 C   0  0  0  0  0  0  0  0  0  0  0  0
   16.4090  -15.9680   23.1110 N   0  3  0  0  0  0  0  0  0  0  0  0
   18.1360  -15.1120   24.6550 C   0  0  0  0  0  0  0  0  0  0  0  0
   14.7040  -10.2160   20.2150 C   0  0  0  0  0  0  0  0  0  0  0  0
   19.5460  -13.8410   21.3150 C   0  0  0  0  0  0  0  0  0  0  0  0
   19.5610  -14.6150   24.8270 C   0  0  0  0  0  0  0  0  0  0  0  0
   13.6410  -10.3570   21.2910 C   0  0  0  0  0  0  0  0  0  0  0  0
   19.8040  -13.3100   25.2930 C   0  0  0  0  0  0  0  0  0  0  0  0
   12.9050  -11.5530   21.4230 C   0  0  0  0  0  0  0  0  0  0  0  0
   21.1140  -12.8170   25.3980 C   0  0  0  0  0  0  0  0  0  0  0  0
   11.8940  -11.6570   22.4010 C   0  0  0  0  0  0  0  0  0  0  0  0
   22.2000  -13.6410   25.0540 C   0  0  0  0  0  0  0  0  0  0  0  0
   11.6200  -10.5700   23.2550 C   0  0  0  0  0  0  0  0  0  0  0  0
   21.9700  -14.9620   24.6260 C   0  0  0  0  0  0  0  0  0  0  0  0
   12.3720   -9.3840   23.1460 C   0  0  0  0  0  0  0  0  0  0  0  0
   20.6530  -15.4490   24.5110 C   0  0  0  0  0  0  0  0  0  0  0  0
   13.3730   -9.2780   22.1610 C   0  0  0  0  0  0  0  0  0  0  0  0
   18.2470  -11.1610   21.7640 H   0  0  0  0  0  0  0  0  0  0  0  0
   18.7920  -12.2520   18.9940 H   0  0  0  0  0  0  0  0  0  0  0  0
   19.5370  -10.8860   19.8140 H   0  0  0  0  0  0  0  0  0  0  0  0
   18.3780  -15.7340   22.5980 H   0  0  0  0  0  0  0  0  0  0  0  0
   16.5620   -9.8920   21.1770 H   0  0  0  0  0  0  0  0  0  0  0  0
   20.8310  -13.2710   19.6330 H   0  0  0  0  0  0  0  0  0  0  0  0
   20.9660  -12.2500   21.0590 H   0  0  0  0  0  0  0  0  0  0  0  0
   16.5520  -16.8840   23.5090 H   0  0  0  0  0  0  0  0  0  0  0  0
   15.6840  -15.4790   23.6230 H   0  0  0  0  0  0  0  0  0  0  0  0
   16.1250  -16.0520   22.1460 H   0  0  0  0  0  0  0  0  0  0  0  0
   17.4590  -14.4910   25.2460 H   0  0  0  0  0  0  0  0  0  0  0  0
   18.0850  -16.1040   25.1050 H   0  0  0  0  0  0  0  0  0  0  0  0
   14.7420   -9.1640   19.9390 H   0  0  0  0  0  0  0  0  0  0  0  0
   14.4050  -10.7640   19.3190 H   0  0  0  0  0  0  0  0  0  0  0  0
   20.1630  -14.1040   22.1720 H   0  0  0  0  0  0  0  0  0  0  0  0
   19.3600  -14.7480   20.7370 H   0  0  0  0  0  0  0  0  0  0  0  0
   18.9900  -12.6790   25.5930 H   0  0  0  0  0  0  0  0  0  0  0  0
   13.2040  -12.7470   20.4980 C   0  0  0  0  0  0  0  0  0  0  0  0
   21.2720  -11.8120   25.7590 H   0  0  0  0  0  0  0  0  0  0  0  0
   11.3290  -12.5740   22.5020 H   0  0  0  0  0  0  0  0  0  0  0  0
   23.2100  -13.2680   25.1380 H   0  0  0  0  0  0  0  0  0  0  0  0
   22.8080  -15.6010   24.3850 H   0  0  0  0  0  0  0  0  0  0  0  0
   12.1350   -8.2180   24.1240 C   0  0  0  0  0  0  0  0  0  0  0  0
   20.4890  -16.4600   24.1660 H   0  0  0  0  0  0  0  0  0  0  0  0
   13.9510   -8.3700   22.0900 H   0  0  0  0  0  0  0  0  0  0  0  0
   10.8470  -10.6550   24.0060 H   0  0  0  0  0  0  0  0  0  0  0  0
   12.8090   -7.3960   23.8800 H   0  0  0  0  0  0  0  0  0  0  0  0
   11.1030   -7.8780   24.0410 H   0  0  0  0  0  0  0  0  0  0  0  0
   12.3260   -8.5530   25.1430 H   0  0  0  0  0  0  0  0  0  0  0  0
   12.5400  -13.5750   20.7470 H   0  0  0  0  0  0  0  0  0  0  0  0
   13.0440  -12.4530   19.4610 H   0  0  0  0  0  0  0  0  0  0  0  0
   14.2400  -13.0600   20.6310 H   0  0  0  0  0  0  0  0  0  0  0  0
  1  2  1  0  0  0  0
  1 14  1  0  0  0  0
  1  3  1  0  0  0  0
  2  5  1  0  0  0  0
  2  7  1  0  0  0  0
  2 27  1  0  0  0  0
  3  8  1  0  0  0  0
  3  4  2  0  0  0  0
  5  6  2  0  0  0  0
  5  9  1  0  0  0  0
  7 10  1  0  0  0  0
  7 28  1  0  0  0  0
  7 29  1  0  0  0  0
  8 11  1  0  0  0  0
  8 12  1  0  0  0  0
  8 30  1  0  0  0  0
  9 13  1  0  0  0  0
  9 31  1  0  0  0  0
 10 14  1  0  0  0  0
 10 32  1  0  0  0  0
 10 33  1  0  0  0  0
 11 34  1  0  0  0  0
 11 35  1  0  0  0  0
 11 36  1  0  0  0  0
 12 15  1  0  0  0  0
 12 37  1  0  0  0  0
 12 38  1  0  0  0  0
 13 16  1  0  0  0  0
 13 39  1  0  0  0  0
 13 40  1  0  0  0  0
 14 41  1  0  0  0  0
 14 42  1  0  0  0  0
 15 17  1  0  0  0  0
 15 25  2  0  0  0  0
 16 18  1  0  0  0  0
 16 26  2  0  0  0  0
 17 19  2  0  0  0  0
 17 43  1  0  0  0  0
 18 20  2  0  0  0  0
 18 44  1  0  0  0  0
 19 21  1  0  0  0  0
 19 45  1  0  0  0  0
 20 22  1  0  0  0  0
 20 46  1  0  0  0  0
 21 23  2  0  0  0  0
 21 47  1  0  0  0  0
 22 24  2  0  0  0  0
 22 52  1  0  0  0  0
 23 25  1  0  0  0  0
 23 48  1  0  0  0  0
 24 26  1  0  0  0  0
 24 49  1  0  0  0  0
 25 50  1  0  0  0  0
 26 51  1  0  0  0  0
 44 56  1  0  0  0  0
 44 57  1  0  0  0  0
 44 58  1  0  0  0  0
 49 53  1  0  0  0  0
 49 54  1  0  0  0  0
 49 55  1  0  0  0  0
M  CHG  1  11   1
M  END
$$$$
