@<TRIPOS>MOLECULE
1d
 52 54 0 0 0
SMALL
GASTEIGER

@<TRIPOS>ATOM
      1 N          18.2720  -13.2440   21.7070 N.am    1  LIG1       -0.2853
      2 C          18.0750  -11.9480   21.0290 C.3     1  LIG1        0.1024
      3 C          17.4020  -13.7830   22.5960 C.2     1  LIG1        0.2646
      4 O          16.4030  -13.1700   22.9770 O.2     1  LIG1       -0.2694
      5 C          16.6730  -11.7590   20.4010 C.2     1  LIG1        0.2338
      6 O          16.1780  -12.6530   19.7120 O.2     1  LIG1       -0.2738
      7 C          19.1740  -11.8990   19.9570 C.3     1  LIG1       -0.0243
      8 C          17.6530  -15.1830   23.1890 C.3     1  LIG1        0.0574
      9 N          16.0510  -10.6000   20.6440 N.am    1  LIG1       -0.3097
     10 C          20.2730  -12.8190   20.4500 C.3     1  LIG1       -0.0350
     11 N          16.4100  -15.9690   23.1120 N.4     1  LIG1        0.2276
     12 C          18.1390  -15.1140   24.6550 C.3     1  LIG1        0.0241
     13 C          14.7140  -10.2250   20.2030 C.3     1  LIG1        0.0369
     14 C          19.5530  -13.8450   21.3180 C.3     1  LIG1        0.0157
     15 C          19.5630  -14.6150   24.8260 C.ar    1  LIG1       -0.0415
     16 C          13.6470  -10.3700   21.2730 C.ar    1  LIG1       -0.0293
     17 C          20.6570  -15.4490   24.5150 C.ar    1  LIG1       -0.0584
     18 C          12.9110  -11.5670   21.3980 C.ar    1  LIG1       -0.0570
     19 C          21.9740  -14.9610   24.6350 C.ar    1  LIG1       -0.0615
     20 C          11.8980  -11.6760   22.3730 C.ar    1  LIG1       -0.0605
     21 C          22.2010  -13.6400   25.0640 C.ar    1  LIG1       -0.0617
     22 C          11.6220  -10.5920   23.2310 C.ar    1  LIG1       -0.0486
     23 C          21.1130  -12.8170   25.4040 C.ar    1  LIG1       -0.0615
     24 C          12.3740   -9.4060   23.1280 C.ar    1  LIG1        0.0137
     25 C          19.8040  -13.3100   25.2940 C.ar    1  LIG1       -0.0584
     26 C          13.3770   -9.2950   22.1450 C.ar    1  LIG1       -0.0439
     27 H          18.2540  -11.1640   21.7630 H       1  LIG1        0.0597
     28 H          18.8040  -12.2580   18.9950 H       1  LIG1        0.0288
     29 H          19.5470  -10.8910   19.8140 H       1  LIG1        0.0288
     30 H          18.3810  -15.7380   22.5980 H       1  LIG1        0.0952
     31 H          16.5670   -9.8980   21.1740 H       1  LIG1        0.1491
     32 H          20.8420  -13.2750   19.6390 H       1  LIG1        0.0281
     33 H          20.9740  -12.2530   21.0650 H       1  LIG1        0.0281
     34 H          16.5520  -16.8850   23.5110 H       1  LIG1        0.2002
     35 H          15.6860  -15.4780   23.6240 H       1  LIG1        0.2002
     36 H          16.1260  -16.0530   22.1480 H       1  LIG1        0.2002
     37 H          17.4610  -14.4950   25.2470 H       1  LIG1        0.0373
     38 H          18.0900  -16.1070   25.1050 H       1  LIG1        0.0373
     39 H          14.7520   -9.1720   19.9320 H       1  LIG1        0.0512
     40 H          14.4210  -10.7710   19.3040 H       1  LIG1        0.0512
     41 H          20.1690  -14.1080   22.1760 H       1  LIG1        0.0465
     42 H          19.3680  -14.7510   20.7400 H       1  LIG1        0.0465
     43 H          20.4940  -16.4620   24.1750 H       1  LIG1        0.0620
     44 H          13.1240  -12.4030   20.7460 H       1  LIG1        0.0621
     45 H          22.8120  -15.6000   24.3980 H       1  LIG1        0.0618
     46 H          11.3350  -12.5940   22.4710 H       1  LIG1        0.0618
     47 H          23.2100  -13.2640   25.1460 H       1  LIG1        0.0618
     48 H          21.2690  -11.8090   25.7590 H       1  LIG1        0.0618
     49 I          12.0630   -7.8310   24.4710 I       1  LIG1       -0.0438
     50 H          18.9890  -12.6800   25.5910 H       1  LIG1        0.0620
     51 H          13.9550   -8.3870   22.0790 H       1  LIG1        0.0631
     52 H          10.8490  -10.6820   23.9820 H       1  LIG1        0.0628
@<TRIPOS>BOND
     1     1     2    1
     2     1    14    1
     3     1     3   am
     4     2     5    1
     5     2     7    1
     6     2    27    1
     7     3     8    1
     8     3     4    2
     9     5     6    2
    10     5     9   am
    11     7    10    1
    12     7    28    1
    13     7    29    1
    14     8    11    1
    15     8    12    1
    16     8    30    1
    17     9    13    1
    18     9    31    1
    19    10    14    1
    20    10    32    1
    21    10    33    1
    22    11    34    1
    23    11    35    1
    24    11    36    1
    25    12    15    1
    26    12    37    1
    27    12    38    1
    28    13    16    1
    29    13    39    1
    30    13    40    1
    31    14    41    1
    32    14    42    1
    33    15    17   ar
    34    15    25   ar
    35    16    18   ar
    36    16    26   ar
    37    17    19   ar
    38    17    43    1
    39    18    20   ar
    40    18    44    1
    41    19    21   ar
    42    19    45    1
    43    20    22   ar
    44    20    46    1
    45    21    23   ar
    46    21    47    1
    47    22    24   ar
    48    22    52    1
    49    23    25   ar
    50    23    48    1
    51    24    26   ar
    52    24    49    1
    53    25    50    1
    54    26    51    1
