@<TRIPOS>MOLECULE
CHEMBL1096003
 62 65 0 0 0
SMALL
GASTEIGER
****
Structure written by MMmdl.
@<TRIPOS>ATOM
      1 C          16.1912   -7.7412   11.8466 C.3     1  LIG1       -0.0433
      2 N          15.1910   -6.9123   11.0170 N.4     1  LIG1        0.2321
      3 C          14.3191   -7.8539   10.3207 C.3     1  LIG1       -0.0433
      4 C          15.9171   -5.9921   10.0050 C.3     1  LIG1       -0.0111
      5 C          14.8572   -5.3740    9.0989 C.3     1  LIG1        0.1214
      6 S          15.6866   -4.1881    7.8512 S.O2    1  LIG1        0.0344
      7 O          15.9605   -2.8994    8.4965 O.2     1  LIG1       -0.1580
      8 O          16.7692   -4.9053    7.1723 O.2     1  LIG1       -0.1580
      9 N          14.3931   -3.9357    6.7113 N.3     1  LIG1       -0.1919
     10 C          14.7292   -3.0772    5.5493 C.3     1  LIG1        0.0434
     11 C          14.9090   -3.7899    4.1939 C.3     1  LIG1        0.0735
     12 C          15.0802   -5.3264    4.2516 C.3     1  LIG1       -0.0249
     13 C          15.2184   -5.9103    2.8356 C.3     1  LIG1       -0.0431
     14 C          14.1038   -5.4145    1.8827 C.3     1  LIG1        0.0121
     15 C          12.7108   -6.0690    2.1214 C.3     1  LIG1        0.0514
     16 C          12.7593   -7.5926    2.0373 C.ar    1  LIG1       -0.0269
     17 C          12.3256   -8.3763    3.1078 C.ar    1  LIG1       -0.0568
     18 C          12.4034   -9.7655    3.0228 C.ar    1  LIG1       -0.0614
     19 C          12.9076  -10.3673    1.8725 C.ar    1  LIG1       -0.0617
     20 C          13.3297   -9.5928    0.7978 C.ar    1  LIG1       -0.0614
     21 C          13.2528   -8.2067    0.8813 C.ar    1  LIG1       -0.0568
     22 N          11.7374   -5.5233    1.1763 N.pl3   1  LIG1       -0.3342
     23 C          11.7936   -4.1831    0.7614 C.ar    1  LIG1        0.0691
     24 C          10.7743   -3.7096   -0.0570 C.ar    1  LIG1        0.1459
     25 F           9.7529   -4.5301   -0.4068 F       1  LIG1       -0.2035
     26 C          10.8089   -2.4050   -0.5396 C.ar    1  LIG1       -0.0063
     27 C          11.8578   -1.5536   -0.1865 C.ar    1  LIG1        0.0441
     28 CL         11.9057    0.0650   -0.7794 Cl      1  LIG1       -0.0834
     29 C          12.8594   -2.0221    0.6688 C.ar    1  LIG1       -0.0358
     30 C          12.8662   -3.3440    1.1312 C.ar    1  LIG1        0.0065
     31 C          14.0156   -3.8719    1.9779 C.3     1  LIG1        0.0906
     32 O          13.8095   -3.4697    3.3345 O.3     1  LIG1       -0.3670
     33 H          15.6635   -8.3780   12.5584 H       1  LIG1        0.0777
     34 H          16.8639   -7.0917   12.4097 H       1  LIG1        0.0777
     35 H          16.7956   -8.3831   11.2033 H       1  LIG1        0.0777
     36 H          14.9112   -8.4558    9.6313 H       1  LIG1        0.0777
     37 H          13.5612   -7.3034    9.7634 H       1  LIG1        0.0777
     38 H          13.8340   -8.5055   11.0474 H       1  LIG1        0.0777
     39 H          16.4788   -5.2144   10.5267 H       1  LIG1        0.0831
     40 H          16.6310   -6.5641    9.4086 H       1  LIG1        0.0831
     41 H          14.3317   -6.1203    8.5046 H       1  LIG1        0.0569
     42 H          14.1257   -4.7632    9.6310 H       1  LIG1        0.0569
     43 H          14.0692   -4.8219    6.3319 H       1  LIG1        0.1477
     44 H          13.9634   -2.3059    5.4562 H       1  LIG1        0.0467
     45 H          15.6452   -2.5288    5.7797 H       1  LIG1        0.0467
     46 H          15.8059   -3.3643    3.7387 H       1  LIG1        0.0609
     47 H          15.9589   -5.5929    4.8383 H       1  LIG1        0.0291
     48 H          14.2174   -5.7845    4.7339 H       1  LIG1        0.0291
     49 H          16.1814   -5.6012    2.4271 H       1  LIG1        0.0270
     50 H          15.2511   -6.9994    2.8712 H       1  LIG1        0.0270
     51 H          14.4140   -5.6583    0.8657 H       1  LIG1        0.0350
     52 H          12.3674   -5.7942    3.1196 H       1  LIG1        0.0551
     53 H          11.9279   -7.9120    3.9977 H       1  LIG1        0.0621
     54 H          12.0653  -10.3792    3.8449 H       1  LIG1        0.0618
     55 H          12.9611  -11.4448    1.8082 H       1  LIG1        0.0618
     56 H          13.7098  -10.0636   -0.0974 H       1  LIG1        0.0618
     57 H          13.5699   -7.6070    0.0406 H       1  LIG1        0.0621
     58 H          10.9548   -6.0948    0.8815 H       1  LIG1        0.1468
     59 H          10.0204   -2.0535   -1.1875 H       1  LIG1        0.0661
     60 H          13.6663   -1.3598    0.9462 H       1  LIG1        0.0636
     61 H          14.9393   -3.4276    1.6025 H       1  LIG1        0.0650
     62 H          14.6358   -6.3567   11.6552 H       1  LIG1        0.2028
@<TRIPOS>BOND
     1     1     2    1
     2     1    33    1
     3     1    34    1
     4     1    35    1
     5     2     3    1
     6     2     4    1
     7     2    62    1
     8     3    36    1
     9     3    37    1
    10     3    38    1
    11     4     5    1
    12     4    39    1
    13     4    40    1
    14     5     6    1
    15     5    41    1
    16     5    42    1
    17     6     7    2
    18     6     8    2
    19     6     9    1
    20     9    10    1
    21     9    43    1
    22    10    11    1
    23    10    44    1
    24    10    45    1
    25    11    12    1
    26    11    32    1
    27    11    46    1
    28    12    13    1
    29    12    47    1
    30    12    48    1
    31    13    14    1
    32    13    49    1
    33    13    50    1
    34    14    15    1
    35    14    31    1
    36    14    51    1
    37    15    16    1
    38    15    22    1
    39    15    52    1
    40    16    17   ar
    41    16    21   ar
    42    17    18   ar
    43    17    53    1
    44    18    19   ar
    45    18    54    1
    46    19    20   ar
    47    19    55    1
    48    20    21   ar
    49    20    56    1
    50    21    57    1
    51    22    23    1
    52    22    58    1
    53    23    24   ar
    54    23    30   ar
    55    24    25    1
    56    24    26   ar
    57    26    27   ar
    58    26    59    1
    59    27    28    1
    60    27    29   ar
    61    29    30   ar
    62    29    60    1
    63    30    31    1
    64    31    32    1
    65    31    61    1
