CHEMBL1084115
 OpenBabel02152110423D
Structure written by MMmdl.
 48 51  0  0  1  0  0  0  0  0999 V2000
   12.7905    0.8113    0.0884 C   0  0  0  0  0  0  0  0  0  0  0  0
   11.9263   -0.1652   -0.7557 C   0  0  0  0  0  0  0  0  0  0  0  0
   12.4938   -0.2209   -2.1702 C   0  0  0  0  0  0  0  0  0  0  0  0
   10.4639    0.3327   -0.8178 C   0  0  0  0  0  0  0  0  0  0  0  0
   11.8952   -1.5870   -0.1857 C   0  0  0  0  0  0  0  0  0  0  0  0
   10.8567   -2.4703   -0.5485 C   0  0  0  0  0  0  0  0  0  0  0  0
   10.8008   -3.7530   -0.0487 C   0  0  0  0  0  0  0  0  0  0  0  0
   11.8122   -4.2238    0.7871 C   0  0  0  0  0  0  0  0  0  0  0  0
   12.8826   -3.3657    1.1452 C   0  0  0  0  0  0  0  0  0  0  0  0
   12.8768   -2.0583    0.6771 C   0  0  0  0  0  0  0  0  0  0  0  0
   14.0286   -3.8762    1.9932 C   0  0  1  0  0  0  0  0  0  0  0  0
   13.8036   -3.4388    3.3367 O   0  0  0  0  0  0  0  0  0  0  0  0
   14.8743   -3.7832    4.2226 C   0  0  0  0  0  0  0  0  0  0  0  0
   15.0676   -5.3199    4.2586 C   0  0  0  0  0  0  0  0  0  0  0  0
   15.2317   -5.8973    2.8508 C   0  0  0  0  0  0  0  0  0  0  0  0
   14.1288   -5.4003    1.8929 C   0  0  1  0  0  0  0  0  0  0  0  0
   12.7338   -6.0798    2.1298 C   0  0  2  0  0  0  0  0  0  0  0  0
   12.7833   -7.5758    1.9513 C   0  0  0  0  0  0  0  0  0  0  0  0
   13.3328   -8.2240    0.8368 C   0  0  0  0  0  0  0  0  0  0  0  0
   13.3036   -9.5996    0.9042 C   0  0  0  0  0  0  0  0  0  0  0  0
   12.5533  -10.1505    2.3594 S   0  0  0  0  0  0  0  0  0  0  0  0
   12.2835   -8.5069    2.8549 C   0  0  0  0  0  0  0  0  0  0  0  0
   11.7330   -5.5400    1.2141 N   0  0  0  0  0  0  0  0  0  0  0  0
   12.8774    1.8196   -0.3202 H   0  0  0  0  0  0  0  0  0  0  0  0
   13.7853    0.3992    0.1623 H   0  0  0  0  0  0  0  0  0  0  0  0
   12.5316    0.8875    1.1493 H   0  0  0  0  0  0  0  0  0  0  0  0
   12.5396    0.7334   -2.7014 H   0  0  0  0  0  0  0  0  0  0  0  0
   11.8012   -0.8731   -2.7045 H   0  0  0  0  0  0  0  0  0  0  0  0
   13.4817   -0.6704   -2.2071 H   0  0  0  0  0  0  0  0  0  0  0  0
    9.7760   -0.2126   -1.4624 H   0  0  0  0  0  0  0  0  0  0  0  0
   10.2442    1.3554   -1.1064 H   0  0  0  0  0  0  0  0  0  0  0  0
   10.1299    0.2315    0.2170 H   0  0  0  0  0  0  0  0  0  0  0  0
   10.0702   -2.1959   -1.2188 H   0  0  0  0  0  0  0  0  0  0  0  0
    9.9698   -4.3894   -0.3253 H   0  0  0  0  0  0  0  0  0  0  0  0
   13.7147   -1.4524    0.9854 H   0  0  0  0  0  0  0  0  0  0  0  0
   14.9578   -3.4374    1.6153 H   0  0  0  0  0  0  0  0  0  0  0  0
   15.7930   -3.3245    3.8765 H   0  0  0  0  0  0  0  0  0  0  0  0
   14.6628   -3.3951    5.2148 H   0  0  0  0  0  0  0  0  0  0  0  0
   15.9430   -5.5641    4.8625 H   0  0  0  0  0  0  0  0  0  0  0  0
   14.2109   -5.7763    4.7551 H   0  0  0  0  0  0  0  0  0  0  0  0
   16.2014   -5.6107    2.4371 H   0  0  0  0  0  0  0  0  0  0  0  0
   15.2555   -6.9840    2.9015 H   0  0  0  0  0  0  0  0  0  0  0  0
   14.4523   -5.5955    0.8708 H   0  0  0  0  0  0  0  0  0  0  0  0
   12.3885   -5.8052    3.1269 H   0  0  0  0  0  0  0  0  0  0  0  0
   13.7581   -7.6897    0.0035 H   0  0  0  0  0  0  0  0  0  0  0  0
   13.6812  -10.3029    0.1651 H   0  0  0  0  0  0  0  0  0  0  0  0
   11.7910   -8.3088    3.7910 H   0  0  0  0  0  0  0  0  0  0  0  0
   10.8761   -6.0660    1.1786 H   0  0  0  0  0  0  0  0  0  0  0  0
  1  2  1  0  0  0  0
  1 24  1  0  0  0  0
  1 25  1  0  0  0  0
  1 26  1  0  0  0  0
  2  3  1  0  0  0  0
  2  4  1  0  0  0  0
  2  5  1  0  0  0  0
  3 27  1  0  0  0  0
  3 28  1  0  0  0  0
  3 29  1  0  0  0  0
  4 30  1  0  0  0  0
  4 31  1  0  0  0  0
  4 32  1  0  0  0  0
  5  6  2  0  0  0  0
  5 10  1  0  0  0  0
  6  7  1  0  0  0  0
  6 33  1  0  0  0  0
  7  8  2  0  0  0  0
  7 34  1  0  0  0  0
  8  9  1  0  0  0  0
  8 23  1  0  0  0  0
  9 10  2  0  0  0  0
  9 11  1  0  0  0  0
 10 35  1  0  0  0  0
 11 12  1  0  0  0  0
 11 16  1  0  0  0  0
 11 36  1  6  0  0  0
 12 13  1  0  0  0  0
 13 14  1  0  0  0  0
 13 37  1  0  0  0  0
 13 38  1  0  0  0  0
 14 15  1  0  0  0  0
 14 39  1  0  0  0  0
 14 40  1  0  0  0  0
 15 16  1  0  0  0  0
 15 41  1  0  0  0  0
 15 42  1  0  0  0  0
 16 17  1  0  0  0  0
 16 43  1  6  0  0  0
 17 18  1  0  0  0  0
 17 23  1  0  0  0  0
 17 44  1  1  0  0  0
 18 19  1  0  0  0  0
 18 22  2  0  0  0  0
 19 20  2  0  0  0  0
 19 45  1  0  0  0  0
 20 21  1  0  0  0  0
 20 46  1  0  0  0  0
 21 22  1  0  0  0  0
 22 47  1  0  0  0  0
 23 48  1  0  0  0  0
M  END
>  <ID>
CHEMBL1084115

>  <IC50[nM]>
120

$$$$
