CHEMBL1085692
 OpenBabel02152110423D
Structure written by MMmdl.
 64 67  0  0  1  0  0  0  0  0999 V2000
   14.6834   -7.3008   11.7225 C   0  0  0  0  0  0  0  0  0  0  0  0
   15.2774   -5.9316   11.3172 N   0  3  0  0  0  0  0  0  0  0  0  0
   15.9300   -5.2530   12.5352 C   0  0  0  0  0  0  0  0  0  0  0  0
   16.2923   -6.0375   10.1526 C   0  0  0  0  0  0  0  0  0  0  0  0
   15.5993   -6.5692    8.8893 C   0  0  0  0  0  0  0  0  0  0  0  0
   14.5542   -5.5430    8.4001 C   0  0  0  0  0  0  0  0  0  0  0  0
   15.1836   -4.5449    7.4457 C   0  0  0  0  0  0  0  0  0  0  0  0
   16.3859   -4.3594    7.3886 O   0  0  0  0  0  0  0  0  0  0  0  0
   14.2892   -3.9272    6.6441 N   0  0  0  0  0  0  0  0  0  0  0  0
   14.6882   -3.0589    5.5552 C   0  0  0  0  0  0  0  0  0  0  0  0
   14.9040   -3.7684    4.1917 C   0  0  1  0  0  0  0  0  0  0  0  0
   15.0828   -5.3154    4.2390 C   0  0  0  0  0  0  0  0  0  0  0  0
   15.2204   -5.9077    2.8305 C   0  0  0  0  0  0  0  0  0  0  0  0
   14.1059   -5.4133    1.8829 C   0  0  1  0  0  0  0  0  0  0  0  0
   12.7128   -6.0662    2.1226 C   0  0  2  0  0  0  0  0  0  0  0  0
   12.7576   -7.5912    2.0355 C   0  0  0  0  0  0  0  0  0  0  0  0
   12.3242   -8.3770    3.1068 C   0  0  0  0  0  0  0  0  0  0  0  0
   12.4016   -9.7648    3.0219 C   0  0  0  0  0  0  0  0  0  0  0  0
   12.9059  -10.3676    1.8713 C   0  0  0  0  0  0  0  0  0  0  0  0
   13.3272   -9.5913    0.7967 C   0  0  0  0  0  0  0  0  0  0  0  0
   13.2504   -8.2070    0.8802 C   0  0  0  0  0  0  0  0  0  0  0  0
   11.7486   -5.5145    1.1710 N   0  0  0  0  0  0  0  0  0  0  0  0
   11.8124   -4.1554    0.7867 C   0  0  0  0  0  0  0  0  0  0  0  0
   10.7992   -3.6430   -0.0245 C   0  0  0  0  0  0  0  0  0  0  0  0
    9.7452   -4.3940   -0.3088 F   0  0  0  0  0  0  0  0  0  0  0  0
   10.8386   -2.3622   -0.5273 C   0  0  0  0  0  0  0  0  0  0  0  0
   11.8857   -1.5286   -0.1663 C   0  0  0  0  0  0  0  0  0  0  0  0
   11.9570    0.2431   -0.8266 Br  0  0  0  0  0  0  0  0  0  0  0  0
   12.8902   -2.0069    0.6804 C   0  0  0  0  0  0  0  0  0  0  0  0
   12.8881   -3.3301    1.1337 C   0  0  0  0  0  0  0  0  0  0  0  0
   14.0302   -3.8699    1.9787 C   0  0  1  0  0  0  0  0  0  0  0  0
   13.8099   -3.4603    3.3270 O   0  0  0  0  0  0  0  0  0  0  0  0
   15.5394   -7.9357   11.9678 H   0  0  0  0  0  0  0  0  0  0  0  0
   14.1006   -7.7185   10.9004 H   0  0  0  0  0  0  0  0  0  0  0  0
   14.0029   -7.1559   12.5615 H   0  0  0  0  0  0  0  0  0  0  0  0
   16.7606   -5.9038   12.8225 H   0  0  0  0  0  0  0  0  0  0  0  0
   15.1664   -5.1905   13.3147 H   0  0  0  0  0  0  0  0  0  0  0  0
   16.2746   -4.2620   12.2253 H   0  0  0  0  0  0  0  0  0  0  0  0
   16.6811   -5.0218    9.9915 H   0  0  0  0  0  0  0  0  0  0  0  0
   17.1086   -6.6770   10.4988 H   0  0  0  0  0  0  0  0  0  0  0  0
   16.3506   -6.8049    8.1366 H   0  0  0  0  0  0  0  0  0  0  0  0
   15.1239   -7.5412    9.0226 H   0  0  0  0  0  0  0  0  0  0  0  0
   13.7453   -6.0592    7.8902 H   0  0  0  0  0  0  0  0  0  0  0  0
   14.0786   -4.9761    9.2045 H   0  0  0  0  0  0  0  0  0  0  0  0
   13.3183   -4.1244    6.7845 H   0  0  0  0  0  0  0  0  0  0  0  0
   13.9105   -2.3007    5.4765 H   0  0  0  0  0  0  0  0  0  0  0  0
   15.5982   -2.5169    5.8278 H   0  0  0  0  0  0  0  0  0  0  0  0
   15.8080   -3.3177    3.7778 H   0  0  0  0  0  0  0  0  0  0  0  0
   15.9629   -5.5825    4.8242 H   0  0  0  0  0  0  0  0  0  0  0  0
   14.2348   -5.7823    4.7443 H   0  0  0  0  0  0  0  0  0  0  0  0
   16.1869   -5.6111    2.4180 H   0  0  0  0  0  0  0  0  0  0  0  0
   15.2476   -6.9947    2.8898 H   0  0  0  0  0  0  0  0  0  0  0  0
   14.4209   -5.6382    0.8628 H   0  0  0  0  0  0  0  0  0  0  0  0
   12.3657   -5.8150    3.1282 H   0  0  0  0  0  0  0  0  0  0  0  0
   11.9332   -7.9157    4.0028 H   0  0  0  0  0  0  0  0  0  0  0  0
   12.0690  -10.3741    3.8509 H   0  0  0  0  0  0  0  0  0  0  0  0
   12.9502  -11.4447    1.8040 H   0  0  0  0  0  0  0  0  0  0  0  0
   13.6941  -10.0604   -0.1045 H   0  0  0  0  0  0  0  0  0  0  0  0
   13.5641   -7.6077    0.0384 H   0  0  0  0  0  0  0  0  0  0  0  0
   10.9203   -6.0734    1.0265 H   0  0  0  0  0  0  0  0  0  0  0  0
   10.0428   -2.0189   -1.1799 H   0  0  0  0  0  0  0  0  0  0  0  0
   13.7007   -1.3465    0.9386 H   0  0  0  0  0  0  0  0  0  0  0  0
   14.9571   -3.4356    1.6023 H   0  0  0  0  0  0  0  0  0  0  0  0
   14.5055   -5.3295   11.0089 H   0  0  0  0  0  0  0  0  0  0  0  0
  1  2  1  0  0  0  0
  1 33  1  0  0  0  0
  1 34  1  0  0  0  0
  1 35  1  0  0  0  0
  2  3  1  0  0  0  0
  2  4  1  0  0  0  0
  2 64  1  0  0  0  0
  3 36  1  0  0  0  0
  3 37  1  0  0  0  0
  3 38  1  0  0  0  0
  4  5  1  0  0  0  0
  4 39  1  0  0  0  0
  4 40  1  0  0  0  0
  5  6  1  0  0  0  0
  5 41  1  0  0  0  0
  5 42  1  0  0  0  0
  6  7  1  0  0  0  0
  6 43  1  0  0  0  0
  6 44  1  0  0  0  0
  7  8  2  0  0  0  0
  7  9  1  0  0  0  0
  9 10  1  0  0  0  0
  9 45  1  0  0  0  0
 10 11  1  0  0  0  0
 10 46  1  0  0  0  0
 10 47  1  0  0  0  0
 11 12  1  0  0  0  0
 11 32  1  0  0  0  0
 11 48  1  6  0  0  0
 12 13  1  0  0  0  0
 12 49  1  0  0  0  0
 12 50  1  0  0  0  0
 13 14  1  0  0  0  0
 13 51  1  0  0  0  0
 13 52  1  0  0  0  0
 14 15  1  0  0  0  0
 14 31  1  0  0  0  0
 14 53  1  6  0  0  0
 15 16  1  0  0  0  0
 15 22  1  0  0  0  0
 15 54  1  1  0  0  0
 16 17  2  0  0  0  0
 16 21  1  0  0  0  0
 17 18  1  0  0  0  0
 17 55  1  0  0  0  0
 18 19  2  0  0  0  0
 18 56  1  0  0  0  0
 19 20  1  0  0  0  0
 19 57  1  0  0  0  0
 20 21  2  0  0  0  0
 20 58  1  0  0  0  0
 21 59  1  0  0  0  0
 22 23  1  0  0  0  0
 22 60  1  0  0  0  0
 23 24  2  0  0  0  0
 23 30  1  0  0  0  0
 24 25  1  0  0  0  0
 24 26  1  0  0  0  0
 26 27  2  0  0  0  0
 26 61  1  0  0  0  0
 27 28  1  0  0  0  0
 27 29  1  0  0  0  0
 29 30  2  0  0  0  0
 29 62  1  0  0  0  0
 30 31  1  0  0  0  0
 31 32  1  0  0  0  0
 31 63  1  6  0  0  0
M  CHG  1   2   1
M  END
>  <ID>
CHEMBL1085692

>  <IC50[nM]>
5

$$$$
