CHEMBL1096002
 OpenBabel02152110423D
Structure written by MMmdl.
 52 55  0  0  1  0  0  0  0  0999 V2000
   14.9398   -6.5745    8.8289 O   0  0  0  0  0  0  0  0  0  0  0  0
   14.5278   -5.2354    8.6990 C   0  0  0  0  0  0  0  0  0  0  0  0
   15.2970   -4.6432    7.5290 C   0  0  0  0  0  0  0  0  0  0  0  0
   14.2597   -3.9478    6.6599 N   0  3  0  0  0  0  0  0  0  0  0  0
   14.7233   -3.0473    5.5240 C   0  0  0  0  0  0  0  0  0  0  0  0
   14.9007   -3.7858    4.1855 C   0  0  1  0  0  0  0  0  0  0  0  0
   15.0793   -5.3248    4.2415 C   0  0  0  0  0  0  0  0  0  0  0  0
   15.2121   -5.9083    2.8276 C   0  0  0  0  0  0  0  0  0  0  0  0
   14.0921   -5.4092    1.8855 C   0  0  1  0  0  0  0  0  0  0  0  0
   12.7002   -6.0672    2.1302 C   0  0  2  0  0  0  0  0  0  0  0  0
   12.7513   -7.5891    2.0317 C   0  0  0  0  0  0  0  0  0  0  0  0
   13.2402   -8.2009    0.8726 C   0  0  0  0  0  0  0  0  0  0  0  0
   13.3148   -9.5869    0.7909 C   0  0  0  0  0  0  0  0  0  0  0  0
   12.8991  -10.3621    1.8687 C   0  0  0  0  0  0  0  0  0  0  0  0
   12.3947   -9.7617    3.0192 C   0  0  0  0  0  0  0  0  0  0  0  0
   12.3191   -8.3736    3.1017 C   0  0  0  0  0  0  0  0  0  0  0  0
   11.7089   -5.5107    1.2081 N   0  0  0  0  0  0  0  0  0  0  0  0
   11.7887   -4.1714    0.7851 C   0  0  0  0  0  0  0  0  0  0  0  0
   10.7851   -3.6834   -0.0443 C   0  0  0  0  0  0  0  0  0  0  0  0
    9.7425   -4.4576   -0.3412 F   0  0  0  0  0  0  0  0  0  0  0  0
   10.8182   -2.3939   -0.5448 C   0  0  0  0  0  0  0  0  0  0  0  0
   11.8627   -1.5566   -0.1858 C   0  0  0  0  0  0  0  0  0  0  0  0
   11.9178    0.0446   -0.8143 Cl  0  0  0  0  0  0  0  0  0  0  0  0
   12.8576   -2.0189    0.6758 C   0  0  0  0  0  0  0  0  0  0  0  0
   12.8659   -3.3411    1.1370 C   0  0  0  0  0  0  0  0  0  0  0  0
   14.0100   -3.8683    1.9858 C   0  0  1  0  0  0  0  0  0  0  0  0
   13.8029   -3.4589    3.3367 O   0  0  0  0  0  0  0  0  0  0  0  0
   14.7621   -6.8963    9.7167 H   0  0  0  0  0  0  0  0  0  0  0  0
   13.4445   -5.1921    8.5389 H   0  0  0  0  0  0  0  0  0  0  0  0
   14.7695   -4.6581    9.5903 H   0  0  0  0  0  0  0  0  0  0  0  0
   16.0064   -3.8769    7.8397 H   0  0  0  0  0  0  0  0  0  0  0  0
   15.7569   -5.4005    6.8992 H   0  0  0  0  0  0  0  0  0  0  0  0
   13.6953   -4.6762    6.2499 H   0  0  0  0  0  0  0  0  0  0  0  0
   13.8991   -2.3346    5.4864 H   0  0  0  0  0  0  0  0  0  0  0  0
   15.6255   -2.5530    5.8731 H   0  0  0  0  0  0  0  0  0  0  0  0
   15.7943   -3.3455    3.7481 H   0  0  0  0  0  0  0  0  0  0  0  0
   15.9690   -5.5846    4.8129 H   0  0  0  0  0  0  0  0  0  0  0  0
   14.2339   -5.7908    4.7491 H   0  0  0  0  0  0  0  0  0  0  0  0
   16.1789   -5.6110    2.4141 H   0  0  0  0  0  0  0  0  0  0  0  0
   15.2359   -6.9961    2.8742 H   0  0  0  0  0  0  0  0  0  0  0  0
   14.3995   -5.6237    0.8615 H   0  0  0  0  0  0  0  0  0  0  0  0
   12.3710   -5.8212    3.1419 H   0  0  0  0  0  0  0  0  0  0  0  0
   13.5515   -7.6017    0.0296 H   0  0  0  0  0  0  0  0  0  0  0  0
   13.6844  -10.0576   -0.1073 H   0  0  0  0  0  0  0  0  0  0  0  0
   12.9569  -11.4391    1.8078 H   0  0  0  0  0  0  0  0  0  0  0  0
   12.0632  -10.3709    3.8491 H   0  0  0  0  0  0  0  0  0  0  0  0
   11.9276   -7.9067    3.9936 H   0  0  0  0  0  0  0  0  0  0  0  0
   10.8156   -5.9913    1.1612 H   0  0  0  0  0  0  0  0  0  0  0  0
   10.0246   -2.0468   -1.1894 H   0  0  0  0  0  0  0  0  0  0  0  0
   13.6495   -1.3525    0.9762 H   0  0  0  0  0  0  0  0  0  0  0  0
   14.9406   -3.4307    1.6172 H   0  0  0  0  0  0  0  0  0  0  0  0
   13.7207   -3.3716    7.2905 H   0  0  0  0  0  0  0  0  0  0  0  0
  1  2  1  0  0  0  0
  1 28  1  0  0  0  0
  2  3  1  0  0  0  0
  2 29  1  0  0  0  0
  2 30  1  0  0  0  0
  3  4  1  0  0  0  0
  3 31  1  0  0  0  0
  3 32  1  0  0  0  0
  4  5  1  0  0  0  0
  4 33  1  0  0  0  0
  4 52  1  0  0  0  0
  5  6  1  0  0  0  0
  5 34  1  0  0  0  0
  5 35  1  0  0  0  0
  6  7  1  0  0  0  0
  6 27  1  0  0  0  0
  6 36  1  6  0  0  0
  7  8  1  0  0  0  0
  7 37  1  0  0  0  0
  7 38  1  0  0  0  0
  8  9  1  0  0  0  0
  8 39  1  0  0  0  0
  8 40  1  0  0  0  0
  9 10  1  0  0  0  0
  9 26  1  0  0  0  0
  9 41  1  6  0  0  0
 10 11  1  0  0  0  0
 10 17  1  0  0  0  0
 10 42  1  1  0  0  0
 11 12  2  0  0  0  0
 11 16  1  0  0  0  0
 12 13  1  0  0  0  0
 12 43  1  0  0  0  0
 13 14  2  0  0  0  0
 13 44  1  0  0  0  0
 14 15  1  0  0  0  0
 14 45  1  0  0  0  0
 15 16  2  0  0  0  0
 15 46  1  0  0  0  0
 16 47  1  0  0  0  0
 17 18  1  0  0  0  0
 17 48  1  0  0  0  0
 18 19  2  0  0  0  0
 18 25  1  0  0  0  0
 19 20  1  0  0  0  0
 19 21  1  0  0  0  0
 21 22  2  0  0  0  0
 21 49  1  0  0  0  0
 22 23  1  0  0  0  0
 22 24  1  0  0  0  0
 24 25  2  0  0  0  0
 24 50  1  0  0  0  0
 25 26  1  0  0  0  0
 26 27  1  0  0  0  0
 26 51  1  6  0  0  0
M  CHG  1   4   1
M  END
>  <ID>
CHEMBL1096002

>  <IC50[nM]>
7

$$$$
