@<TRIPOS>MOLECULE
CHEMBL1096002
 52 55 0 0 0
SMALL
GASTEIGER
****
Structure written by MMmdl.
@<TRIPOS>ATOM
      1 O          14.9398   -6.5745    8.8289 O.3     1  LIG1       -0.3898
      2 C          14.5278   -5.2354    8.6990 C.3     1  LIG1        0.0840
      3 C          15.2970   -4.6432    7.5290 C.3     1  LIG1       -0.0099
      4 N          14.2597   -3.9478    6.6599 N.4     1  LIG1        0.2304
      5 C          14.7233   -3.0473    5.5240 C.3     1  LIG1       -0.0067
      6 C          14.9007   -3.7858    4.1855 C.3     1  LIG1        0.0990
      7 C          15.0793   -5.3248    4.2415 C.3     1  LIG1       -0.0212
      8 C          15.2121   -5.9083    2.8276 C.3     1  LIG1       -0.0430
      9 C          14.0921   -5.4092    1.8855 C.3     1  LIG1        0.0121
     10 C          12.7002   -6.0672    2.1302 C.3     1  LIG1        0.0514
     11 C          12.7513   -7.5891    2.0317 C.ar    1  LIG1       -0.0269
     12 C          13.2402   -8.2009    0.8726 C.ar    1  LIG1       -0.0568
     13 C          13.3148   -9.5869    0.7909 C.ar    1  LIG1       -0.0614
     14 C          12.8991  -10.3621    1.8687 C.ar    1  LIG1       -0.0617
     15 C          12.3947   -9.7617    3.0192 C.ar    1  LIG1       -0.0614
     16 C          12.3191   -8.3736    3.1017 C.ar    1  LIG1       -0.0568
     17 N          11.7089   -5.5107    1.2081 N.pl3   1  LIG1       -0.3342
     18 C          11.7887   -4.1714    0.7851 C.ar    1  LIG1        0.0691
     19 C          10.7851   -3.6834   -0.0443 C.ar    1  LIG1        0.1459
     20 F           9.7425   -4.4576   -0.3412 F       1  LIG1       -0.2035
     21 C          10.8182   -2.3939   -0.5448 C.ar    1  LIG1       -0.0063
     22 C          11.8627   -1.5566   -0.1858 C.ar    1  LIG1        0.0441
     23 CL         11.9178    0.0446   -0.8143 Cl      1  LIG1       -0.0834
     24 C          12.8576   -2.0189    0.6758 C.ar    1  LIG1       -0.0358
     25 C          12.8659   -3.3411    1.1370 C.ar    1  LIG1        0.0065
     26 C          14.0100   -3.8683    1.9858 C.3     1  LIG1        0.0908
     27 O          13.8029   -3.4589    3.3367 O.3     1  LIG1       -0.3631
     28 H          14.7621   -6.8963    9.7167 H       1  LIG1        0.2096
     29 H          13.4445   -5.1921    8.5389 H       1  LIG1        0.0610
     30 H          14.7695   -4.6581    9.5903 H       1  LIG1        0.0610
     31 H          16.0064   -3.8769    7.8397 H       1  LIG1        0.0836
     32 H          15.7569   -5.4005    6.8992 H       1  LIG1        0.0836
     33 H          13.6953   -4.6762    6.2499 H       1  LIG1        0.2015
     34 H          13.8991   -2.3346    5.4864 H       1  LIG1        0.0839
     35 H          15.6255   -2.5530    5.8731 H       1  LIG1        0.0839
     36 H          15.7943   -3.3455    3.7481 H       1  LIG1        0.0650
     37 H          15.9690   -5.5846    4.8129 H       1  LIG1        0.0292
     38 H          14.2339   -5.7908    4.7491 H       1  LIG1        0.0292
     39 H          16.1789   -5.6110    2.4141 H       1  LIG1        0.0270
     40 H          15.2359   -6.9961    2.8742 H       1  LIG1        0.0270
     41 H          14.3995   -5.6237    0.8615 H       1  LIG1        0.0350
     42 H          12.3710   -5.8212    3.1419 H       1  LIG1        0.0551
     43 H          13.5515   -7.6017    0.0296 H       1  LIG1        0.0621
     44 H          13.6844  -10.0576   -0.1073 H       1  LIG1        0.0618
     45 H          12.9569  -11.4391    1.8078 H       1  LIG1        0.0618
     46 H          12.0632  -10.3709    3.8491 H       1  LIG1        0.0618
     47 H          11.9276   -7.9067    3.9936 H       1  LIG1        0.0621
     48 H          10.8156   -5.9913    1.1612 H       1  LIG1        0.1468
     49 H          10.0246   -2.0468   -1.1894 H       1  LIG1        0.0661
     50 H          13.6495   -1.3525    0.9762 H       1  LIG1        0.0636
     51 H          14.9406   -3.4307    1.6172 H       1  LIG1        0.0650
     52 H          13.7207   -3.3716    7.2905 H       1  LIG1        0.2015
@<TRIPOS>BOND
     1     1     2    1
     2     1    28    1
     3     2     3    1
     4     2    29    1
     5     2    30    1
     6     3     4    1
     7     3    31    1
     8     3    32    1
     9     4     5    1
    10     4    33    1
    11     4    52    1
    12     5     6    1
    13     5    34    1
    14     5    35    1
    15     6     7    1
    16     6    27    1
    17     6    36    1
    18     7     8    1
    19     7    37    1
    20     7    38    1
    21     8     9    1
    22     8    39    1
    23     8    40    1
    24     9    10    1
    25     9    26    1
    26     9    41    1
    27    10    11    1
    28    10    17    1
    29    10    42    1
    30    11    12   ar
    31    11    16   ar
    32    12    13   ar
    33    12    43    1
    34    13    14   ar
    35    13    44    1
    36    14    15   ar
    37    14    45    1
    38    15    16   ar
    39    15    46    1
    40    16    47    1
    41    17    18    1
    42    17    48    1
    43    18    19   ar
    44    18    25   ar
    45    19    20    1
    46    19    21   ar
    47    21    22   ar
    48    21    49    1
    49    22    23    1
    50    22    24   ar
    51    24    25   ar
    52    24    50    1
    53    25    26    1
    54    26    27    1
    55    26    51    1
