CHEMBL1084935
 OpenBabel02152110423D
Structure written by MMmdl.
 70 73  0  0  1  0  0  0  0  0999 V2000
   11.8941   -2.8870    6.6585 C   0  0  0  0  0  0  0  0  0  0  0  0
   13.1611   -3.1833    7.4914 C   0  0  0  0  0  0  0  0  0  0  0  0
   14.1889   -3.9556    6.6529 N   0  3  2  0  0  0  0  0  0  0  0  0
   15.2831   -4.6170    7.5349 C   0  0  0  0  0  0  0  0  0  0  0  0
   14.6484   -5.6321    8.4883 C   0  0  0  0  0  0  0  0  0  0  0  0
   15.6314   -6.4882    9.0155 O   0  0  0  0  0  0  0  0  0  0  0  0
   14.7830   -3.0434    5.5472 C   0  0  0  0  0  0  0  0  0  0  0  0
   14.9397   -3.7821    4.1936 C   0  0  1  0  0  0  0  0  0  0  0  0
   15.0827   -5.3316    4.2335 C   0  0  0  0  0  0  0  0  0  0  0  0
   15.2131   -5.9184    2.8241 C   0  0  0  0  0  0  0  0  0  0  0  0
   14.0995   -5.4193    1.8815 C   0  0  1  0  0  0  0  0  0  0  0  0
   12.7089   -6.0737    2.1363 C   0  0  2  0  0  0  0  0  0  0  0  0
   12.7560   -7.5938    2.0385 C   0  0  0  0  0  0  0  0  0  0  0  0
   12.3233   -8.3792    3.1082 C   0  0  0  0  0  0  0  0  0  0  0  0
   12.4013   -9.7662    3.0214 C   0  0  0  0  0  0  0  0  0  0  0  0
   12.9053  -10.3669    1.8706 C   0  0  0  0  0  0  0  0  0  0  0  0
   13.3256   -9.5903    0.7954 C   0  0  0  0  0  0  0  0  0  0  0  0
   13.2476   -8.2058    0.8797 C   0  0  0  0  0  0  0  0  0  0  0  0
   11.7083   -5.5287    1.2201 N   0  0  0  0  0  0  0  0  0  0  0  0
   11.7889   -4.1985    0.7863 C   0  0  0  0  0  0  0  0  0  0  0  0
   10.7777   -3.7353   -0.0458 C   0  0  0  0  0  0  0  0  0  0  0  0
   10.8328   -2.4457   -0.5434 C   0  0  0  0  0  0  0  0  0  0  0  0
   11.8762   -1.5795   -0.1948 C   0  0  0  0  0  0  0  0  0  0  0  0
   11.9234   -0.1516   -0.7693 C   0  0  0  0  0  0  0  0  0  0  0  0
   12.6677    0.8246    0.1645 C   0  0  0  0  0  0  0  0  0  0  0  0
   10.4765    0.3389   -0.9933 C   0  0  0  0  0  0  0  0  0  0  0  0
   12.6705   -0.1459   -2.1072 C   0  0  0  0  0  0  0  0  0  0  0  0
   12.8668   -2.0505    0.6751 C   0  0  0  0  0  0  0  0  0  0  0  0
   12.8600   -3.3611    1.1455 C   0  0  0  0  0  0  0  0  0  0  0  0
   14.0148   -3.8794    1.9822 C   0  0  1  0  0  0  0  0  0  0  0  0
   13.8256   -3.4715    3.3390 O   0  0  0  0  0  0  0  0  0  0  0  0
   11.1742   -2.2996    7.2500 H   0  0  0  0  0  0  0  0  0  0  0  0
   11.4154   -3.8259    6.3623 H   0  0  0  0  0  0  0  0  0  0  0  0
   12.0785   -2.3275    5.7398 H   0  0  0  0  0  0  0  0  0  0  0  0
   13.6696   -2.2854    7.8652 H   0  0  0  0  0  0  0  0  0  0  0  0
   12.8526   -3.7729    8.3489 H   0  0  0  0  0  0  0  0  0  0  0  0
   15.9752   -5.1154    6.8759 H   0  0  0  0  0  0  0  0  0  0  0  0
   15.8111   -3.8259    8.0549 H   0  0  0  0  0  0  0  0  0  0  0  0
   14.1682   -5.1616    9.3545 H   0  0  0  0  0  0  0  0  0  0  0  0
   13.8946   -6.2297    7.9694 H   0  0  0  0  0  0  0  0  0  0  0  0
   16.1600   -5.9879    9.6528 H   0  0  0  0  0  0  0  0  0  0  0  0
   14.1503   -2.1969    5.3703 H   0  0  0  0  0  0  0  0  0  0  0  0
   15.7253   -2.6313    5.9175 H   0  0  0  0  0  0  0  0  0  0  0  0
   15.8458   -3.3513    3.7378 H   0  0  0  0  0  0  0  0  0  0  0  0
   15.9744   -5.6136    4.7825 H   0  0  0  0  0  0  0  0  0  0  0  0
   14.2321   -5.7899    4.7451 H   0  0  0  0  0  0  0  0  0  0  0  0
   16.1795   -5.6227    2.4155 H   0  0  0  0  0  0  0  0  0  0  0  0
   15.2373   -7.0043    2.8858 H   0  0  0  0  0  0  0  0  0  0  0  0
   14.4132   -5.6373    0.8604 H   0  0  0  0  0  0  0  0  0  0  0  0
   12.3738   -5.8192    3.1443 H   0  0  0  0  0  0  0  0  0  0  0  0
   11.9358   -7.9185    4.0054 H   0  0  0  0  0  0  0  0  0  0  0  0
   12.0658  -10.3743    3.8490 H   0  0  0  0  0  0  0  0  0  0  0  0
   12.9492  -11.4443    1.8028 H   0  0  0  0  0  0  0  0  0  0  0  0
   13.6945  -10.0591   -0.1044 H   0  0  0  0  0  0  0  0  0  0  0  0
   13.5566   -7.6057    0.0367 H   0  0  0  0  0  0  0  0  0  0  0  0
   10.7987   -5.9708    1.2887 H   0  0  0  0  0  0  0  0  0  0  0  0
    9.9449   -4.3656   -0.3156 H   0  0  0  0  0  0  0  0  0  0  0  0
   10.0342   -2.1354   -1.1967 H   0  0  0  0  0  0  0  0  0  0  0  0
   12.5901    1.8750   -0.1283 H   0  0  0  0  0  0  0  0  0  0  0  0
   13.7299    0.5873    0.1975 H   0  0  0  0  0  0  0  0  0  0  0  0
   12.3721    0.7011    1.1918 H   0  0  0  0  0  0  0  0  0  0  0  0
    9.7853   -0.0025   -0.2578 H   0  0  0  0  0  0  0  0  0  0  0  0
   10.0269   -0.0771   -1.9126 H   0  0  0  0  0  0  0  0  0  0  0  0
   10.3268    1.3824   -1.0970 H   0  0  0  0  0  0  0  0  0  0  0  0
   12.6130    0.8052   -2.6352 H   0  0  0  0  0  0  0  0  0  0  0  0
   12.2275   -0.8945   -2.7357 H   0  0  0  0  0  0  0  0  0  0  0  0
   13.7202   -0.4120   -1.9978 H   0  0  0  0  0  0  0  0  0  0  0  0
   13.6877   -1.4191    0.9735 H   0  0  0  0  0  0  0  0  0  0  0  0
   14.9392   -3.4400    1.6016 H   0  0  0  0  0  0  0  0  0  0  0  0
   13.6941   -4.7009    6.2036 H   0  0  0  0  0  0  0  0  0  0  0  0
  1  2  1  0  0  0  0
  1 32  1  0  0  0  0
  1 33  1  0  0  0  0
  1 34  1  0  0  0  0
  2  3  1  0  0  0  0
  2 35  1  0  0  0  0
  2 36  1  0  0  0  0
  3  4  1  0  0  0  0
  3  7  1  0  0  0  0
  3 70  1  6  0  0  0
  4  5  1  0  0  0  0
  4 37  1  0  0  0  0
  4 38  1  0  0  0  0
  5  6  1  0  0  0  0
  5 39  1  0  0  0  0
  5 40  1  0  0  0  0
  6 41  1  0  0  0  0
  7  8  1  0  0  0  0
  7 42  1  0  0  0  0
  7 43  1  0  0  0  0
  8  9  1  0  0  0  0
  8 31  1  0  0  0  0
  8 44  1  6  0  0  0
  9 10  1  0  0  0  0
  9 45  1  0  0  0  0
  9 46  1  0  0  0  0
 10 11  1  0  0  0  0
 10 47  1  0  0  0  0
 10 48  1  0  0  0  0
 11 12  1  0  0  0  0
 11 30  1  0  0  0  0
 11 49  1  6  0  0  0
 12 13  1  0  0  0  0
 12 19  1  0  0  0  0
 12 50  1  1  0  0  0
 13 14  2  0  0  0  0
 13 18  1  0  0  0  0
 14 15  1  0  0  0  0
 14 51  1  0  0  0  0
 15 16  2  0  0  0  0
 15 52  1  0  0  0  0
 16 17  1  0  0  0  0
 16 53  1  0  0  0  0
 17 18  2  0  0  0  0
 17 54  1  0  0  0  0
 18 55  1  0  0  0  0
 19 20  1  0  0  0  0
 19 56  1  0  0  0  0
 20 21  2  0  0  0  0
 20 29  1  0  0  0  0
 21 22  1  0  0  0  0
 21 57  1  0  0  0  0
 22 23  2  0  0  0  0
 22 58  1  0  0  0  0
 23 24  1  0  0  0  0
 23 28  1  0  0  0  0
 24 25  1  0  0  0  0
 24 26  1  0  0  0  0
 24 27  1  0  0  0  0
 25 59  1  0  0  0  0
 25 60  1  0  0  0  0
 25 61  1  0  0  0  0
 26 62  1  0  0  0  0
 26 63  1  0  0  0  0
 26 64  1  0  0  0  0
 27 65  1  0  0  0  0
 27 66  1  0  0  0  0
 27 67  1  0  0  0  0
 28 29  2  0  0  0  0
 28 68  1  0  0  0  0
 29 30  1  0  0  0  0
 30 31  1  0  0  0  0
 30 69  1  6  0  0  0
M  CHG  1   3   1
M  END
>  <ID>
CHEMBL1084935

>  <IC50[nM]>
19

$$$$
