@<TRIPOS>MOLECULE
CHEMBL1084678
 65 68 0 0 0
SMALL
GASTEIGER
****
Structure written by MMmdl.
@<TRIPOS>ATOM
      1 C          13.9216   -5.2248    6.2140 C.3     1  LIG1        0.0087
      2 N          14.3931   -3.9357    6.7113 N.3     1  LIG1       -0.1817
      3 C          14.7292   -3.0772    5.5493 C.3     1  LIG1        0.0461
      4 C          14.9090   -3.7899    4.1939 C.3     1  LIG1        0.0738
      5 C          15.0802   -5.3264    4.2516 C.3     1  LIG1       -0.0249
      6 C          15.2184   -5.9103    2.8356 C.3     1  LIG1       -0.0431
      7 C          14.1038   -5.4145    1.8827 C.3     1  LIG1        0.0120
      8 C          12.7108   -6.0690    2.1214 C.3     1  LIG1        0.0514
      9 C          12.7593   -7.5926    2.0373 C.ar    1  LIG1       -0.0269
     10 C          13.2528   -8.2067    0.8813 C.ar    1  LIG1       -0.0568
     11 C          13.3297   -9.5928    0.7978 C.ar    1  LIG1       -0.0614
     12 C          12.9076  -10.3673    1.8725 C.ar    1  LIG1       -0.0617
     13 C          12.4034   -9.7655    3.0228 C.ar    1  LIG1       -0.0614
     14 C          12.3256   -8.3763    3.1078 C.ar    1  LIG1       -0.0568
     15 N          11.7374   -5.5233    1.1763 N.pl3   1  LIG1       -0.3364
     16 C          11.7936   -4.1831    0.7614 C.ar    1  LIG1        0.0333
     17 C          10.7743   -3.7096   -0.0570 C.ar    1  LIG1       -0.0400
     18 C          10.8089   -2.4050   -0.5396 C.ar    1  LIG1       -0.0484
     19 C          11.8578   -1.5536   -0.1865 C.ar    1  LIG1        0.0553
     20 C          11.9038   -0.1354   -0.7457 C.3     1  LIG1        0.4174
     21 F          12.5538    0.6943    0.0706 F       1  LIG1       -0.1659
     22 F          10.6704    0.3354   -0.9312 F       1  LIG1       -0.1659
     23 F          12.5323   -0.1555   -1.9215 F       1  LIG1       -0.1659
     24 C          12.8594   -2.0221    0.6688 C.ar    1  LIG1       -0.0427
     25 C          12.8662   -3.3440    1.1312 C.ar    1  LIG1        0.0028
     26 C          14.0156   -3.8719    1.9779 C.3     1  LIG1        0.0905
     27 O          13.8095   -3.4697    3.3345 O.3     1  LIG1       -0.3670
     28 S          15.6866   -4.1881    7.8512 S.O2    1  LIG1        0.0319
     29 O          15.9605   -2.8994    8.4965 O.2     1  LIG1       -0.1580
     30 O          16.7692   -4.9053    7.1723 O.2     1  LIG1       -0.1580
     31 C          14.8572   -5.3740    9.0989 C.3     1  LIG1        0.0867
     32 C          15.9171   -5.9921   10.0050 C.3     1  LIG1        0.0082
     33 C          15.3038   -6.9160   11.0151 C.3     1  LIG1       -0.0338
     34 N          16.3534   -7.4821   11.8573 N.4     1  LIG1        0.2186
     35 H          13.1126   -5.0654    5.5011 H       1  LIG1        0.0408
     36 H          13.5579   -5.8251    7.0480 H       1  LIG1        0.0408
     37 H          14.7422   -5.7465    5.7215 H       1  LIG1        0.0408
     38 H          13.9642   -2.3054    5.4592 H       1  LIG1        0.0469
     39 H          15.6464   -2.5325    5.7827 H       1  LIG1        0.0469
     40 H          15.8063   -3.3644    3.7396 H       1  LIG1        0.0609
     41 H          15.9574   -5.5924    4.8413 H       1  LIG1        0.0291
     42 H          14.2186   -5.7837    4.7374 H       1  LIG1        0.0291
     43 H          16.1824   -5.6023    2.4292 H       1  LIG1        0.0270
     44 H          15.2504   -6.9993    2.8747 H       1  LIG1        0.0270
     45 H          14.4142   -5.6578    0.8660 H       1  LIG1        0.0350
     46 H          12.3696   -5.7939    3.1206 H       1  LIG1        0.0551
     47 H          13.5731   -7.6058    0.0429 H       1  LIG1        0.0621
     48 H          13.7135  -10.0635   -0.0957 H       1  LIG1        0.0618
     49 H          12.9663  -11.4447    1.8125 H       1  LIG1        0.0618
     50 H          12.0731  -10.3767    3.8503 H       1  LIG1        0.0618
     51 H          11.9367   -7.9121    4.0023 H       1  LIG1        0.0621
     52 H          10.9629   -6.1171    0.9159 H       1  LIG1        0.1467
     53 H           9.9574   -4.3554   -0.3440 H       1  LIG1        0.0636
     54 H          10.0263   -2.0526   -1.1952 H       1  LIG1        0.0624
     55 H          13.6706   -1.3642    0.9426 H       1  LIG1        0.0627
     56 H          14.9395   -3.4278    1.6031 H       1  LIG1        0.0650
     57 H          14.1288   -4.7959    9.6664 H       1  LIG1        0.0517
     58 H          14.3347   -6.1489    8.5436 H       1  LIG1        0.0517
     59 H          16.6439   -6.5608    9.4235 H       1  LIG1        0.0333
     60 H          16.4631   -5.2166   10.5437 H       1  LIG1        0.0333
     61 H          14.6002   -6.3607   11.6353 H       1  LIG1        0.0814
     62 H          14.7780   -7.7200   10.5000 H       1  LIG1        0.0814
     63 H          15.9405   -8.1042   12.5374 H       1  LIG1        0.1994
     64 H          16.8406   -6.7371   12.3345 H       1  LIG1        0.1994
     65 H          17.0054   -7.9967   11.2826 H       1  LIG1        0.1994
@<TRIPOS>BOND
     1     1     2    1
     2     1    35    1
     3     1    36    1
     4     1    37    1
     5     2     3    1
     6     2    28    1
     7     3     4    1
     8     3    38    1
     9     3    39    1
    10     4     5    1
    11     4    27    1
    12     4    40    1
    13     5     6    1
    14     5    41    1
    15     5    42    1
    16     6     7    1
    17     6    43    1
    18     6    44    1
    19     7     8    1
    20     7    26    1
    21     7    45    1
    22     8     9    1
    23     8    15    1
    24     8    46    1
    25     9    10   ar
    26     9    14   ar
    27    10    11   ar
    28    10    47    1
    29    11    12   ar
    30    11    48    1
    31    12    13   ar
    32    12    49    1
    33    13    14   ar
    34    13    50    1
    35    14    51    1
    36    15    16    1
    37    15    52    1
    38    16    17   ar
    39    16    25   ar
    40    17    18   ar
    41    17    53    1
    42    18    19   ar
    43    18    54    1
    44    19    20    1
    45    19    24   ar
    46    20    21    1
    47    20    22    1
    48    20    23    1
    49    24    25   ar
    50    24    55    1
    51    25    26    1
    52    26    27    1
    53    26    56    1
    54    28    29    2
    55    28    30    2
    56    28    31    1
    57    31    32    1
    58    31    57    1
    59    31    58    1
    60    32    33    1
    61    32    59    1
    62    32    60    1
    63    33    34    1
    64    33    61    1
    65    33    62    1
    66    34    63    1
    67    34    64    1
    68    34    65    1
