CHEMBL1096003
 OpenBabel02152110423D
Structure written by MMmdl.
 62 65  0  0  1  0  0  0  0  0999 V2000
   16.1912   -7.7412   11.8466 C   0  0  0  0  0  0  0  0  0  0  0  0
   15.1910   -6.9123   11.0170 N   0  3  0  0  0  0  0  0  0  0  0  0
   14.3191   -7.8539   10.3207 C   0  0  0  0  0  0  0  0  0  0  0  0
   15.9171   -5.9921   10.0050 C   0  0  0  0  0  0  0  0  0  0  0  0
   14.8572   -5.3740    9.0989 C   0  0  0  0  0  0  0  0  0  0  0  0
   15.6866   -4.1881    7.8512 S   0  0  0  0  0  0  0  0  0  0  0  0
   15.9605   -2.8994    8.4965 O   0  0  0  0  0  0  0  0  0  0  0  0
   16.7692   -4.9053    7.1723 O   0  0  0  0  0  0  0  0  0  0  0  0
   14.3931   -3.9357    6.7113 N   0  0  0  0  0  0  0  0  0  0  0  0
   14.7292   -3.0772    5.5493 C   0  0  0  0  0  0  0  0  0  0  0  0
   14.9090   -3.7899    4.1939 C   0  0  1  0  0  0  0  0  0  0  0  0
   15.0802   -5.3264    4.2516 C   0  0  0  0  0  0  0  0  0  0  0  0
   15.2184   -5.9103    2.8356 C   0  0  0  0  0  0  0  0  0  0  0  0
   14.1038   -5.4145    1.8827 C   0  0  1  0  0  0  0  0  0  0  0  0
   12.7108   -6.0690    2.1214 C   0  0  2  0  0  0  0  0  0  0  0  0
   12.7593   -7.5926    2.0373 C   0  0  0  0  0  0  0  0  0  0  0  0
   12.3256   -8.3763    3.1078 C   0  0  0  0  0  0  0  0  0  0  0  0
   12.4034   -9.7655    3.0228 C   0  0  0  0  0  0  0  0  0  0  0  0
   12.9076  -10.3673    1.8725 C   0  0  0  0  0  0  0  0  0  0  0  0
   13.3297   -9.5928    0.7978 C   0  0  0  0  0  0  0  0  0  0  0  0
   13.2528   -8.2067    0.8813 C   0  0  0  0  0  0  0  0  0  0  0  0
   11.7374   -5.5233    1.1763 N   0  0  0  0  0  0  0  0  0  0  0  0
   11.7936   -4.1831    0.7614 C   0  0  0  0  0  0  0  0  0  0  0  0
   10.7743   -3.7096   -0.0570 C   0  0  0  0  0  0  0  0  0  0  0  0
    9.7529   -4.5301   -0.4068 F   0  0  0  0  0  0  0  0  0  0  0  0
   10.8089   -2.4050   -0.5396 C   0  0  0  0  0  0  0  0  0  0  0  0
   11.8578   -1.5536   -0.1865 C   0  0  0  0  0  0  0  0  0  0  0  0
   11.9057    0.0650   -0.7794 Cl  0  0  0  0  0  0  0  0  0  0  0  0
   12.8594   -2.0221    0.6688 C   0  0  0  0  0  0  0  0  0  0  0  0
   12.8662   -3.3440    1.1312 C   0  0  0  0  0  0  0  0  0  0  0  0
   14.0156   -3.8719    1.9779 C   0  0  1  0  0  0  0  0  0  0  0  0
   13.8095   -3.4697    3.3345 O   0  0  0  0  0  0  0  0  0  0  0  0
   15.6635   -8.3780   12.5584 H   0  0  0  0  0  0  0  0  0  0  0  0
   16.8639   -7.0917   12.4097 H   0  0  0  0  0  0  0  0  0  0  0  0
   16.7956   -8.3831   11.2033 H   0  0  0  0  0  0  0  0  0  0  0  0
   14.9112   -8.4558    9.6313 H   0  0  0  0  0  0  0  0  0  0  0  0
   13.5612   -7.3034    9.7634 H   0  0  0  0  0  0  0  0  0  0  0  0
   13.8340   -8.5055   11.0474 H   0  0  0  0  0  0  0  0  0  0  0  0
   16.4788   -5.2144   10.5267 H   0  0  0  0  0  0  0  0  0  0  0  0
   16.6310   -6.5641    9.4086 H   0  0  0  0  0  0  0  0  0  0  0  0
   14.3317   -6.1203    8.5046 H   0  0  0  0  0  0  0  0  0  0  0  0
   14.1257   -4.7632    9.6310 H   0  0  0  0  0  0  0  0  0  0  0  0
   14.0692   -4.8219    6.3319 H   0  0  0  0  0  0  0  0  0  0  0  0
   13.9634   -2.3059    5.4562 H   0  0  0  0  0  0  0  0  0  0  0  0
   15.6452   -2.5288    5.7797 H   0  0  0  0  0  0  0  0  0  0  0  0
   15.8059   -3.3643    3.7387 H   0  0  0  0  0  0  0  0  0  0  0  0
   15.9589   -5.5929    4.8383 H   0  0  0  0  0  0  0  0  0  0  0  0
   14.2174   -5.7845    4.7339 H   0  0  0  0  0  0  0  0  0  0  0  0
   16.1814   -5.6012    2.4271 H   0  0  0  0  0  0  0  0  0  0  0  0
   15.2511   -6.9994    2.8712 H   0  0  0  0  0  0  0  0  0  0  0  0
   14.4140   -5.6583    0.8657 H   0  0  0  0  0  0  0  0  0  0  0  0
   12.3674   -5.7942    3.1196 H   0  0  0  0  0  0  0  0  0  0  0  0
   11.9279   -7.9120    3.9977 H   0  0  0  0  0  0  0  0  0  0  0  0
   12.0653  -10.3792    3.8449 H   0  0  0  0  0  0  0  0  0  0  0  0
   12.9611  -11.4448    1.8082 H   0  0  0  0  0  0  0  0  0  0  0  0
   13.7098  -10.0636   -0.0974 H   0  0  0  0  0  0  0  0  0  0  0  0
   13.5699   -7.6070    0.0406 H   0  0  0  0  0  0  0  0  0  0  0  0
   10.9548   -6.0948    0.8815 H   0  0  0  0  0  0  0  0  0  0  0  0
   10.0204   -2.0535   -1.1875 H   0  0  0  0  0  0  0  0  0  0  0  0
   13.6663   -1.3598    0.9462 H   0  0  0  0  0  0  0  0  0  0  0  0
   14.9393   -3.4276    1.6025 H   0  0  0  0  0  0  0  0  0  0  0  0
   14.6358   -6.3567   11.6552 H   0  0  0  0  0  0  0  0  0  0  0  0
  1  2  1  0  0  0  0
  1 33  1  0  0  0  0
  1 34  1  0  0  0  0
  1 35  1  0  0  0  0
  2  3  1  0  0  0  0
  2  4  1  0  0  0  0
  2 62  1  0  0  0  0
  3 36  1  0  0  0  0
  3 37  1  0  0  0  0
  3 38  1  0  0  0  0
  4  5  1  0  0  0  0
  4 39  1  0  0  0  0
  4 40  1  0  0  0  0
  5  6  1  0  0  0  0
  5 41  1  0  0  0  0
  5 42  1  0  0  0  0
  6  7  2  0  0  0  0
  6  8  2  0  0  0  0
  6  9  1  0  0  0  0
  9 10  1  0  0  0  0
  9 43  1  0  0  0  0
 10 11  1  0  0  0  0
 10 44  1  0  0  0  0
 10 45  1  0  0  0  0
 11 12  1  0  0  0  0
 11 32  1  0  0  0  0
 11 46  1  6  0  0  0
 12 13  1  0  0  0  0
 12 47  1  0  0  0  0
 12 48  1  0  0  0  0
 13 14  1  0  0  0  0
 13 49  1  0  0  0  0
 13 50  1  0  0  0  0
 14 15  1  0  0  0  0
 14 31  1  0  0  0  0
 14 51  1  6  0  0  0
 15 16  1  0  0  0  0
 15 22  1  0  0  0  0
 15 52  1  1  0  0  0
 16 17  2  0  0  0  0
 16 21  1  0  0  0  0
 17 18  1  0  0  0  0
 17 53  1  0  0  0  0
 18 19  2  0  0  0  0
 18 54  1  0  0  0  0
 19 20  1  0  0  0  0
 19 55  1  0  0  0  0
 20 21  2  0  0  0  0
 20 56  1  0  0  0  0
 21 57  1  0  0  0  0
 22 23  1  0  0  0  0
 22 58  1  0  0  0  0
 23 24  2  0  0  0  0
 23 30  1  0  0  0  0
 24 25  1  0  0  0  0
 24 26  1  0  0  0  0
 26 27  2  0  0  0  0
 26 59  1  0  0  0  0
 27 28  1  0  0  0  0
 27 29  1  0  0  0  0
 29 30  2  0  0  0  0
 29 60  1  0  0  0  0
 30 31  1  0  0  0  0
 31 32  1  0  0  0  0
 31 61  1  6  0  0  0
M  CHG  1   2   1
M  END
>  <ID>
CHEMBL1096003

>  <IC50[nM]>
2

$$$$
