@<TRIPOS>MOLECULE
CHEMBL1082248
 48 51 0 0 0
SMALL
GASTEIGER
****
Structure written by MMmdl.
@<TRIPOS>ATOM
      1 C          15.2950   -4.6489    7.5427 C.3     1  LIG1       -0.0448
      2 N          14.2431   -3.9717    6.6832 N.4     1  LIG1        0.2266
      3 C          14.7152   -3.0566    5.5506 C.3     1  LIG1       -0.0070
      4 C          14.8996   -3.7854    4.1962 C.3     1  LIG1        0.0990
      5 C          15.0784   -5.3263    4.2419 C.3     1  LIG1       -0.0212
      6 C          15.2145   -5.9089    2.8275 C.3     1  LIG1       -0.0430
      7 C          14.0958   -5.4103    1.8854 C.3     1  LIG1        0.0121
      8 C          12.7046   -6.0664    2.1334 C.3     1  LIG1        0.0514
      9 C          12.7522   -7.5891    2.0319 C.ar    1  LIG1       -0.0269
     10 C          13.2426   -8.2016    0.8733 C.ar    1  LIG1       -0.0568
     11 C          13.3140   -9.5878    0.7904 C.ar    1  LIG1       -0.0614
     12 C          12.8993  -10.3629    1.8685 C.ar    1  LIG1       -0.0617
     13 C          12.3976   -9.7624    3.0199 C.ar    1  LIG1       -0.0614
     14 C          12.3188   -8.3746    3.1014 C.ar    1  LIG1       -0.0568
     15 N          11.7003   -5.5083    1.2297 N.pl3   1  LIG1       -0.3342
     16 C          11.7953   -4.1716    0.7885 C.ar    1  LIG1        0.0690
     17 C          10.7805   -3.6907   -0.0459 C.ar    1  LIG1        0.1455
     18 F           9.7395   -4.4635   -0.3381 F       1  LIG1       -0.2035
     19 C          10.8168   -2.3885   -0.5402 C.ar    1  LIG1       -0.0106
     20 C          11.8588   -1.5562   -0.1789 C.ar    1  LIG1        0.0210
     21 BR         11.9219    0.2266   -0.8239 Br      1  LIG1       -0.0502
     22 C          12.8579   -2.0181    0.6739 C.ar    1  LIG1       -0.0402
     23 C          12.8701   -3.3425    1.1348 C.ar    1  LIG1        0.0062
     24 C          14.0136   -3.8673    1.9896 C.3     1  LIG1        0.0908
     25 O          13.8021   -3.4602    3.3414 O.3     1  LIG1       -0.3631
     26 H          14.6722   -5.3376    8.1135 H       1  LIG1        0.0777
     27 H          15.7378   -3.8667    8.1578 H       1  LIG1        0.0777
     28 H          15.9889   -5.1440    6.8693 H       1  LIG1        0.0777
     29 H          13.6986   -4.7078    6.2653 H       1  LIG1        0.2012
     30 H          13.9006   -2.3314    5.5188 H       1  LIG1        0.0839
     31 H          15.6229   -2.5742    5.9093 H       1  LIG1        0.0839
     32 H          15.8010   -3.3533    3.7592 H       1  LIG1        0.0650
     33 H          15.9669   -5.5897    4.8122 H       1  LIG1        0.0292
     34 H          14.2332   -5.7983    4.7432 H       1  LIG1        0.0292
     35 H          16.1816   -5.6138    2.4140 H       1  LIG1        0.0270
     36 H          15.2390   -6.9966    2.8739 H       1  LIG1        0.0270
     37 H          14.4023   -5.6396    0.8642 H       1  LIG1        0.0350
     38 H          12.3631   -5.8282    3.1420 H       1  LIG1        0.0551
     39 H          13.5605   -7.6046    0.0315 H       1  LIG1        0.0621
     40 H          13.6817  -10.0581   -0.1090 H       1  LIG1        0.0618
     41 H          12.9563  -11.4399    1.8085 H       1  LIG1        0.0618
     42 H          12.0729  -10.3710    3.8527 H       1  LIG1        0.0618
     43 H          11.9266   -7.9115    3.9950 H       1  LIG1        0.0621
     44 H          10.7715   -5.8527    1.4458 H       1  LIG1        0.1468
     45 H          10.0125   -2.0341   -1.1684 H       1  LIG1        0.0658
     46 H          13.6352   -1.3316    0.9629 H       1  LIG1        0.0633
     47 H          14.9508   -3.4231    1.6469 H       1  LIG1        0.0650
     48 H          13.6821   -3.4293    7.3237 H       1  LIG1        0.2012
@<TRIPOS>BOND
     1     1     2    1
     2     1    26    1
     3     1    27    1
     4     1    28    1
     5     2     3    1
     6     2    29    1
     7     2    48    1
     8     3     4    1
     9     3    30    1
    10     3    31    1
    11     4     5    1
    12     4    25    1
    13     4    32    1
    14     5     6    1
    15     5    33    1
    16     5    34    1
    17     6     7    1
    18     6    35    1
    19     6    36    1
    20     7     8    1
    21     7    24    1
    22     7    37    1
    23     8     9    1
    24     8    15    1
    25     8    38    1
    26     9    10   ar
    27     9    14   ar
    28    10    11   ar
    29    10    39    1
    30    11    12   ar
    31    11    40    1
    32    12    13   ar
    33    12    41    1
    34    13    14   ar
    35    13    42    1
    36    14    43    1
    37    15    16    1
    38    15    44    1
    39    16    17   ar
    40    16    23   ar
    41    17    18    1
    42    17    19   ar
    43    19    20   ar
    44    19    45    1
    45    20    21    1
    46    20    22   ar
    47    22    23   ar
    48    22    46    1
    49    23    24    1
    50    24    25    1
    51    24    47    1
