@<TRIPOS>MOLECULE
CHEMBL1093087
 66 70 0 0 0
SMALL
GASTEIGER
****
Structure written by MMmdl.
@<TRIPOS>ATOM
      1 N          17.0595   -4.3278    9.3015 N.4     1  LIG1        0.2196
      2 C          16.4111   -3.6781    8.0642 C.3     1  LIG1       -0.0193
      3 C          15.4283   -4.6540    7.4209 C.3     1  LIG1        0.0522
      4 N          14.3173   -3.9632    6.7098 N.pl3   1  LIG1       -0.3224
      5 C          14.6711   -3.1205    5.5672 C.3     1  LIG1        0.0387
      6 C          14.8777   -3.7953    4.1876 C.3     1  LIG1        0.0751
      7 C          15.1008   -5.3295    4.2145 C.3     1  LIG1       -0.0247
      8 C          15.2228   -5.9222    2.8121 C.3     1  LIG1       -0.0431
      9 C          14.1174   -5.4218    1.8557 C.3     1  LIG1        0.0120
     10 C          12.7216   -6.0747    2.0945 C.3     1  LIG1        0.0514
     11 C          12.7729   -7.6008    2.0278 C.ar    1  LIG1       -0.0269
     12 C          13.2706   -8.2220    0.8801 C.ar    1  LIG1       -0.0568
     13 C          13.3326   -9.6058    0.8050 C.ar    1  LIG1       -0.0614
     14 C          12.9181  -10.3802    1.8839 C.ar    1  LIG1       -0.0617
     15 C          12.4178   -9.7705    3.0309 C.ar    1  LIG1       -0.0614
     16 C          12.3383   -8.3811    3.1031 C.ar    1  LIG1       -0.0568
     17 N          11.7413   -5.5300    1.1481 N.pl3   1  LIG1       -0.3364
     18 C          11.8102   -4.1920    0.7296 C.ar    1  LIG1        0.0333
     19 C          10.7818   -3.7078   -0.0824 C.ar    1  LIG1       -0.0400
     20 C          10.8015   -2.3932   -0.5399 C.ar    1  LIG1       -0.0484
     21 C          11.8482   -1.5380   -0.1822 C.ar    1  LIG1        0.0553
     22 C          11.8927   -0.1087   -0.7182 C.3     1  LIG1        0.4174
     23 F          10.6612    0.3848   -0.9020 F       1  LIG1       -0.1659
     24 F          12.5434    0.7151    0.1022 F       1  LIG1       -0.1659
     25 F          12.5269   -0.1156   -1.8900 F       1  LIG1       -0.1659
     26 C          12.8592   -2.0214    0.6553 C.ar    1  LIG1       -0.0427
     27 C          12.8763   -3.3505    1.0997 C.ar    1  LIG1        0.0028
     28 C          14.0264   -3.8788    1.9517 C.3     1  LIG1        0.0905
     29 O          13.7985   -3.4740    3.3022 O.3     1  LIG1       -0.3668
     30 C          13.3153   -3.3837    7.5227 C.ar    1  LIG1        0.0299
     31 C          13.5260   -3.1620    8.8770 C.ar    1  LIG1       -0.0407
     32 C          12.6670   -2.3578    9.6181 C.ar    1  LIG1       -0.0600
     33 C          11.5921   -1.7940    8.9796 C.ar    1  LIG1       -0.0616
     34 C          11.2437   -2.1161    7.6763 C.ar    1  LIG1       -0.0600
     35 C          12.1204   -2.9427    6.9433 C.ar    1  LIG1       -0.0407
     36 H          17.6568   -3.6617    9.7565 H       1  LIG1        0.1995
     37 H          17.6101   -5.1312    9.0447 H       1  LIG1        0.1995
     38 H          15.9195   -2.7926    8.4434 H       1  LIG1        0.0829
     39 H          17.2377   -3.4059    7.4424 H       1  LIG1        0.0829
     40 H          15.9313   -5.3216    6.7606 H       1  LIG1        0.0516
     41 H          14.9812   -5.2759    8.1921 H       1  LIG1        0.0516
     42 H          13.9247   -2.3268    5.4426 H       1  LIG1        0.0489
     43 H          15.5691   -2.5567    5.8165 H       1  LIG1        0.0489
     44 H          15.7729   -3.3247    3.7794 H       1  LIG1        0.0612
     45 H          16.0240   -5.5622    4.7373 H       1  LIG1        0.0291
     46 H          14.2903   -5.8199    4.7564 H       1  LIG1        0.0291
     47 H          16.1958   -5.6425    2.4082 H       1  LIG1        0.0270
     48 H          15.2434   -7.0086    2.8819 H       1  LIG1        0.0270
     49 H          14.4469   -5.6561    0.8431 H       1  LIG1        0.0350
     50 H          12.3742   -5.8039    3.0944 H       1  LIG1        0.0551
     51 H          13.6090   -7.6310    0.0429 H       1  LIG1        0.0621
     52 H          13.7259  -10.0642   -0.0889 H       1  LIG1        0.0618
     53 H          12.9744  -11.4583    1.8259 H       1  LIG1        0.0618
     54 H          12.0836  -10.3775    3.8617 H       1  LIG1        0.0618
     55 H          11.9448   -7.9147    3.9942 H       1  LIG1        0.0621
     56 H          10.8681   -6.0360    1.1026 H       1  LIG1        0.1467
     57 H           9.9645   -4.3552   -0.3654 H       1  LIG1        0.0636
     58 H          10.0037   -2.0394   -1.1794 H       1  LIG1        0.0624
     59 H          13.6697   -1.3617    0.9363 H       1  LIG1        0.0627
     60 H          14.9580   -3.4381    1.5896 H       1  LIG1        0.0650
     61 H          14.3767   -3.5863    9.3810 H       1  LIG1        0.0636
     62 H          12.8478   -2.1791   10.6617 H       1  LIG1        0.0618
     63 H          10.9180   -1.1483    9.5397 H       1  LIG1        0.0618
     64 H          10.3539   -1.7242    7.2367 H       1  LIG1        0.0618
     65 H          11.8461   -3.2038    5.9297 H       1  LIG1        0.0636
     66 H          16.3405   -4.6101    9.9418 H       1  LIG1        0.1995
@<TRIPOS>BOND
     1     1     2    1
     2     1    36    1
     3     1    37    1
     4     1    66    1
     5     2     3    1
     6     2    38    1
     7     2    39    1
     8     3     4    1
     9     3    40    1
    10     3    41    1
    11     4     5    1
    12     4    30    1
    13     5     6    1
    14     5    42    1
    15     5    43    1
    16     6     7    1
    17     6    29    1
    18     6    44    1
    19     7     8    1
    20     7    45    1
    21     7    46    1
    22     8     9    1
    23     8    47    1
    24     8    48    1
    25     9    10    1
    26     9    28    1
    27     9    49    1
    28    10    11    1
    29    10    17    1
    30    10    50    1
    31    11    12   ar
    32    11    16   ar
    33    12    13   ar
    34    12    51    1
    35    13    14   ar
    36    13    52    1
    37    14    15   ar
    38    14    53    1
    39    15    16   ar
    40    15    54    1
    41    16    55    1
    42    17    18    1
    43    17    56    1
    44    18    19   ar
    45    18    27   ar
    46    19    20   ar
    47    19    57    1
    48    20    21   ar
    49    20    58    1
    50    21    22    1
    51    21    26   ar
    52    22    23    1
    53    22    24    1
    54    22    25    1
    55    26    27   ar
    56    26    59    1
    57    27    28    1
    58    28    29    1
    59    28    60    1
    60    30    31   ar
    61    30    35   ar
    62    31    32   ar
    63    31    61    1
    64    32    33   ar
    65    32    62    1
    66    33    34   ar
    67    33    63    1
    68    34    35   ar
    69    34    64    1
    70    35    65    1
