@<TRIPOS>MOLECULE
CHEMBL1077227
 57 60 0 0 0
SMALL
GASTEIGER
****
Structure written by MMmdl.
@<TRIPOS>ATOM
      1 C          15.2899   -4.6440    7.5351 C.3     1  LIG1       -0.0448
      2 N          14.2408   -3.9683    6.6690 N.4     1  LIG1        0.2266
      3 C          14.7206   -3.0566    5.5418 C.3     1  LIG1       -0.0070
      4 C          14.8984   -3.7855    4.1902 C.3     1  LIG1        0.0990
      5 C          15.0728   -5.3257    4.2388 C.3     1  LIG1       -0.0212
      6 C          15.2134   -5.9104    2.8261 C.3     1  LIG1       -0.0430
      7 C          14.0958   -5.4095    1.8827 C.3     1  LIG1        0.0125
      8 C          12.7022   -6.0636    2.1368 C.3     1  LIG1        0.0575
      9 C          12.7070   -7.5842    2.0907 C.ar    1  LIG1        0.0102
     10 C          12.2595   -8.4762    3.0628 C.ar    1  LIG1       -0.0497
     11 C          12.4745   -9.8243    2.7647 C.ar    1  LIG1       -0.0544
     12 C          13.0252  -10.0075    1.5129 C.ar    1  LIG1       -0.0240
     13 S          13.3330   -8.4922    0.7364 S.2     1  LIG1       -0.0997
     14 N          11.6991   -5.5164    1.2216 N.pl3   1  LIG1       -0.3359
     15 C          11.7868   -4.1856    0.7799 C.ar    1  LIG1        0.0333
     16 C          10.7738   -3.7177   -0.0535 C.ar    1  LIG1       -0.0402
     17 C          10.8219   -2.4249   -0.5507 C.ar    1  LIG1       -0.0563
     18 C          11.8669   -1.5627   -0.1974 C.ar    1  LIG1       -0.0415
     19 C          11.9198   -0.1294   -0.7526 C.3     1  LIG1       -0.0127
     20 C          10.4882    0.3797   -0.9919 C.3     1  LIG1       -0.0560
     21 C          12.6705   -0.0930   -2.0912 C.3     1  LIG1       -0.0560
     22 C          12.6599    0.8143    0.2183 C.3     1  LIG1       -0.0560
     23 C          12.8580   -2.0372    0.6716 C.ar    1  LIG1       -0.0507
     24 C          12.8622   -3.3514    1.1382 C.ar    1  LIG1        0.0026
     25 C          14.0094   -3.8677    1.9934 C.3     1  LIG1        0.0907
     26 O          13.7960   -3.4623    3.3445 O.3     1  LIG1       -0.3631
     27 H          14.6664   -5.2237    8.2169 H       1  LIG1        0.0777
     28 H          15.8523   -3.8448    8.0176 H       1  LIG1        0.0777
     29 H          15.8748   -5.2649    6.8653 H       1  LIG1        0.0777
     30 H          13.7110   -4.7018    6.2296 H       1  LIG1        0.2012
     31 H          13.9057   -2.3303    5.5154 H       1  LIG1        0.0839
     32 H          15.6371   -2.5924    5.9000 H       1  LIG1        0.0839
     33 H          15.7935   -3.3529    3.7429 H       1  LIG1        0.0650
     34 H          15.9485   -5.5941    4.8268 H       1  LIG1        0.0292
     35 H          14.2142   -5.7907    4.7217 H       1  LIG1        0.0292
     36 H          16.1837   -5.6238    2.4135 H       1  LIG1        0.0270
     37 H          15.2279   -6.9978    2.8763 H       1  LIG1        0.0270
     38 H          14.4053   -5.6215    0.8588 H       1  LIG1        0.0351
     39 H          12.3641   -5.7750    3.1321 H       1  LIG1        0.0556
     40 H          11.8117   -8.1486    3.9889 H       1  LIG1        0.0626
     41 H          12.2118  -10.6326    3.4332 H       1  LIG1        0.0623
     42 H          13.2650  -10.9429    1.0257 H       1  LIG1        0.0693
     43 H          10.7720   -5.8918    1.3809 H       1  LIG1        0.1467
     44 H           9.9477   -4.3525   -0.3357 H       1  LIG1        0.0636
     45 H          10.0337   -2.1012   -1.2145 H       1  LIG1        0.0621
     46 H          10.4127    1.4448   -1.0125 H       1  LIG1        0.0238
     47 H           9.8181    0.0700   -0.2204 H       1  LIG1        0.0238
     48 H          10.0518    0.0158   -1.8864 H       1  LIG1        0.0238
     49 H          12.1527   -0.6813   -2.8327 H       1  LIG1        0.0238
     50 H          13.6843   -0.4720   -2.0012 H       1  LIG1        0.0238
     51 H          12.7560    0.9141   -2.4864 H       1  LIG1        0.0238
     52 H          12.5165    1.8671   -0.0212 H       1  LIG1        0.0238
     53 H          13.7282    0.6208    0.2096 H       1  LIG1        0.0238
     54 H          12.3734    0.6364    1.2460 H       1  LIG1        0.0238
     55 H          13.6663   -1.3913    0.9779 H       1  LIG1        0.0625
     56 H          14.9478   -3.4140    1.6615 H       1  LIG1        0.0650
     57 H          13.6614   -3.4199    7.2878 H       1  LIG1        0.2012
@<TRIPOS>BOND
     1     1     2    1
     2     1    27    1
     3     1    28    1
     4     1    29    1
     5     2     3    1
     6     2    30    1
     7     2    57    1
     8     3     4    1
     9     3    31    1
    10     3    32    1
    11     4     5    1
    12     4    26    1
    13     4    33    1
    14     5     6    1
    15     5    34    1
    16     5    35    1
    17     6     7    1
    18     6    36    1
    19     6    37    1
    20     7     8    1
    21     7    25    1
    22     7    38    1
    23     8     9    1
    24     8    14    1
    25     8    39    1
    26     9    10   ar
    27     9    13   ar
    28    10    11   ar
    29    10    40    1
    30    11    12   ar
    31    11    41    1
    32    12    13   ar
    33    12    42    1
    34    14    15    1
    35    14    43    1
    36    15    16   ar
    37    15    24   ar
    38    16    17   ar
    39    16    44    1
    40    17    18   ar
    41    17    45    1
    42    18    19    1
    43    18    23   ar
    44    19    20    1
    45    19    21    1
    46    19    22    1
    47    20    46    1
    48    20    47    1
    49    20    48    1
    50    21    49    1
    51    21    50    1
    52    21    51    1
    53    22    52    1
    54    22    53    1
    55    22    54    1
    56    23    24   ar
    57    23    55    1
    58    24    25    1
    59    25    26    1
    60    25    56    1
