CHEMBL1082249
 OpenBabel02152110423D
Structure written by MMmdl.
 58 61  0  0  1  0  0  0  0  0999 V2000
   16.4793   -7.2843   11.3165 C   0  0  0  0  0  0  0  0  0  0  0  0
   15.3531   -6.5124   10.6819 C   0  0  0  0  0  0  0  0  0  0  0  0
   14.3425   -6.2284   11.3248 O   0  0  0  0  0  0  0  0  0  0  0  0
   15.5705   -6.1542    9.4074 N   0  0  0  0  0  0  0  0  0  0  0  0
   14.6248   -5.4276    8.5868 C   0  0  0  0  0  0  0  0  0  0  0  0
   15.3309   -4.6310    7.4948 C   0  0  0  0  0  0  0  0  0  0  0  0
   14.2349   -3.9683    6.6666 N   0  3  0  0  0  0  0  0  0  0  0  0
   14.7037   -3.0483    5.5326 C   0  0  0  0  0  0  0  0  0  0  0  0
   14.9054   -3.7819    4.1884 C   0  0  1  0  0  0  0  0  0  0  0  0
   15.0841   -5.3250    4.2406 C   0  0  0  0  0  0  0  0  0  0  0  0
   15.2163   -5.9084    2.8271 C   0  0  0  0  0  0  0  0  0  0  0  0
   14.0959   -5.4139    1.8851 C   0  0  1  0  0  0  0  0  0  0  0  0
   12.7047   -6.0683    2.1278 C   0  0  2  0  0  0  0  0  0  0  0  0
   12.7518   -7.5911    2.0333 C   0  0  0  0  0  0  0  0  0  0  0  0
   12.3185   -8.3767    3.1031 C   0  0  0  0  0  0  0  0  0  0  0  0
   12.3947   -9.7647    3.0181 C   0  0  0  0  0  0  0  0  0  0  0  0
   12.8984  -10.3649    1.8672 C   0  0  0  0  0  0  0  0  0  0  0  0
   13.3180   -9.5891    0.7918 C   0  0  0  0  0  0  0  0  0  0  0  0
   13.2433   -8.2036    0.8752 C   0  0  0  0  0  0  0  0  0  0  0  0
   11.7323   -5.5141    1.1851 N   0  0  0  0  0  0  0  0  0  0  0  0
   11.7964   -4.1649    0.7844 C   0  0  0  0  0  0  0  0  0  0  0  0
   10.7831   -3.6789   -0.0372 C   0  0  0  0  0  0  0  0  0  0  0  0
    9.7490   -4.4602   -0.3161 F   0  0  0  0  0  0  0  0  0  0  0  0
   10.8205   -2.3838   -0.5398 C   0  0  0  0  0  0  0  0  0  0  0  0
   11.8667   -1.5519   -0.1779 C   0  0  0  0  0  0  0  0  0  0  0  0
   11.9398    0.2253   -0.8395 Br  0  0  0  0  0  0  0  0  0  0  0  0
   12.8708   -2.0181    0.6698 C   0  0  0  0  0  0  0  0  0  0  0  0
   12.8692   -3.3398    1.1350 C   0  0  0  0  0  0  0  0  0  0  0  0
   14.0156   -3.8713    1.9784 C   0  0  1  0  0  0  0  0  0  0  0  0
   13.8110   -3.4596    3.3295 O   0  0  0  0  0  0  0  0  0  0  0  0
   17.2860   -7.4122   10.5963 H   0  0  0  0  0  0  0  0  0  0  0  0
   16.1209   -8.2634   11.6274 H   0  0  0  0  0  0  0  0  0  0  0  0
   16.8684   -6.7396   12.1761 H   0  0  0  0  0  0  0  0  0  0  0  0
   16.4618   -6.3688    8.9839 H   0  0  0  0  0  0  0  0  0  0  0  0
   13.9298   -6.1630    8.1684 H   0  0  0  0  0  0  0  0  0  0  0  0
   14.0418   -4.7470    9.2039 H   0  0  0  0  0  0  0  0  0  0  0  0
   16.0166   -3.8888    7.8979 H   0  0  0  0  0  0  0  0  0  0  0  0
   15.8487   -5.2672    6.7726 H   0  0  0  0  0  0  0  0  0  0  0  0
   13.6134   -4.6809    6.3124 H   0  0  0  0  0  0  0  0  0  0  0  0
   13.8909   -2.3248    5.4758 H   0  0  0  0  0  0  0  0  0  0  0  0
   15.5997   -2.5296    5.8821 H   0  0  0  0  0  0  0  0  0  0  0  0
   15.8101   -3.3391    3.7698 H   0  0  0  0  0  0  0  0  0  0  0  0
   15.9741   -5.5907    4.8114 H   0  0  0  0  0  0  0  0  0  0  0  0
   14.2386   -5.8006    4.7402 H   0  0  0  0  0  0  0  0  0  0  0  0
   16.1810   -5.6068    2.4136 H   0  0  0  0  0  0  0  0  0  0  0  0
   15.2464   -6.9959    2.8761 H   0  0  0  0  0  0  0  0  0  0  0  0
   14.4070   -5.6435    0.8654 H   0  0  0  0  0  0  0  0  0  0  0  0
   12.3679   -5.8170    3.1367 H   0  0  0  0  0  0  0  0  0  0  0  0
   11.9257   -7.9159    3.9980 H   0  0  0  0  0  0  0  0  0  0  0  0
   12.0597  -10.3748    3.8454 H   0  0  0  0  0  0  0  0  0  0  0  0
   12.9444  -11.4421    1.8009 H   0  0  0  0  0  0  0  0  0  0  0  0
   13.6837  -10.0591   -0.1086 H   0  0  0  0  0  0  0  0  0  0  0  0
   13.5566   -7.6057    0.0323 H   0  0  0  0  0  0  0  0  0  0  0  0
   10.9526   -6.1058    0.9333 H   0  0  0  0  0  0  0  0  0  0  0  0
   10.0263   -2.0396   -1.1886 H   0  0  0  0  0  0  0  0  0  0  0  0
   13.6827   -1.3602    0.9293 H   0  0  0  0  0  0  0  0  0  0  0  0
   14.9414   -3.4345    1.5999 H   0  0  0  0  0  0  0  0  0  0  0  0
   13.7266   -3.3987    7.3300 H   0  0  0  0  0  0  0  0  0  0  0  0
  1  2  1  0  0  0  0
  1 31  1  0  0  0  0
  1 32  1  0  0  0  0
  1 33  1  0  0  0  0
  2  3  2  0  0  0  0
  2  4  1  0  0  0  0
  4  5  1  0  0  0  0
  4 34  1  0  0  0  0
  5  6  1  0  0  0  0
  5 35  1  0  0  0  0
  5 36  1  0  0  0  0
  6  7  1  0  0  0  0
  6 37  1  0  0  0  0
  6 38  1  0  0  0  0
  7  8  1  0  0  0  0
  7 39  1  0  0  0  0
  7 58  1  0  0  0  0
  8  9  1  0  0  0  0
  8 40  1  0  0  0  0
  8 41  1  0  0  0  0
  9 10  1  0  0  0  0
  9 30  1  0  0  0  0
  9 42  1  6  0  0  0
 10 11  1  0  0  0  0
 10 43  1  0  0  0  0
 10 44  1  0  0  0  0
 11 12  1  0  0  0  0
 11 45  1  0  0  0  0
 11 46  1  0  0  0  0
 12 13  1  0  0  0  0
 12 29  1  0  0  0  0
 12 47  1  6  0  0  0
 13 14  1  0  0  0  0
 13 20  1  0  0  0  0
 13 48  1  1  0  0  0
 14 15  2  0  0  0  0
 14 19  1  0  0  0  0
 15 16  1  0  0  0  0
 15 49  1  0  0  0  0
 16 17  2  0  0  0  0
 16 50  1  0  0  0  0
 17 18  1  0  0  0  0
 17 51  1  0  0  0  0
 18 19  2  0  0  0  0
 18 52  1  0  0  0  0
 19 53  1  0  0  0  0
 20 21  1  0  0  0  0
 20 54  1  0  0  0  0
 21 22  2  0  0  0  0
 21 28  1  0  0  0  0
 22 23  1  0  0  0  0
 22 24  1  0  0  0  0
 24 25  2  0  0  0  0
 24 55  1  0  0  0  0
 25 26  1  0  0  0  0
 25 27  1  0  0  0  0
 27 28  2  0  0  0  0
 27 56  1  0  0  0  0
 28 29  1  0  0  0  0
 29 30  1  0  0  0  0
 29 57  1  6  0  0  0
M  CHG  1   7   1
M  END
>  <ID>
CHEMBL1082249

>  <IC50[nM]>
6

$$$$
