@<TRIPOS>MOLECULE
CHEMBL1084115
 48 51 0 0 0
SMALL
GASTEIGER
****
Structure written by MMmdl.
@<TRIPOS>ATOM
      1 C          12.7905    0.8113    0.0884 C.3     1  LIG1       -0.0560
      2 C          11.9263   -0.1652   -0.7557 C.3     1  LIG1       -0.0127
      3 C          12.4938   -0.2209   -2.1702 C.3     1  LIG1       -0.0560
      4 C          10.4639    0.3327   -0.8178 C.3     1  LIG1       -0.0560
      5 C          11.8952   -1.5870   -0.1857 C.ar    1  LIG1       -0.0415
      6 C          10.8567   -2.4703   -0.5485 C.ar    1  LIG1       -0.0563
      7 C          10.8008   -3.7530   -0.0487 C.ar    1  LIG1       -0.0402
      8 C          11.8122   -4.2238    0.7871 C.ar    1  LIG1        0.0333
      9 C          12.8826   -3.3657    1.1452 C.ar    1  LIG1        0.0026
     10 C          12.8768   -2.0583    0.6771 C.ar    1  LIG1       -0.0507
     11 C          14.0286   -3.8762    1.9932 C.3     1  LIG1        0.0901
     12 O          13.8036   -3.4388    3.3367 O.3     1  LIG1       -0.3716
     13 C          14.8743   -3.7832    4.2226 C.3     1  LIG1        0.0485
     14 C          15.0676   -5.3199    4.2586 C.3     1  LIG1       -0.0290
     15 C          15.2317   -5.8973    2.8508 C.3     1  LIG1       -0.0435
     16 C          14.1288   -5.4003    1.8929 C.3     1  LIG1        0.0120
     17 C          12.7338   -6.0798    2.1298 C.3     1  LIG1        0.0519
     18 C          12.7833   -7.5758    1.9513 C.ar    1  LIG1       -0.0199
     19 C          13.3328   -8.2240    0.8368 C.ar    1  LIG1       -0.0498
     20 C          13.3036   -9.5996    0.9042 C.ar    1  LIG1       -0.0240
     21 S          12.5533  -10.1505    2.3594 S.2     1  LIG1       -0.1047
     22 C          12.2835   -8.5069    2.8549 C.ar    1  LIG1       -0.0194
     23 N          11.7330   -5.5400    1.2141 N.pl3   1  LIG1       -0.3363
     24 H          12.8774    1.8196   -0.3202 H       1  LIG1        0.0238
     25 H          13.7853    0.3992    0.1623 H       1  LIG1        0.0238
     26 H          12.5316    0.8875    1.1493 H       1  LIG1        0.0238
     27 H          12.5396    0.7334   -2.7014 H       1  LIG1        0.0238
     28 H          11.8012   -0.8731   -2.7045 H       1  LIG1        0.0238
     29 H          13.4817   -0.6704   -2.2071 H       1  LIG1        0.0238
     30 H           9.7760   -0.2126   -1.4624 H       1  LIG1        0.0238
     31 H          10.2442    1.3554   -1.1064 H       1  LIG1        0.0238
     32 H          10.1299    0.2315    0.2170 H       1  LIG1        0.0238
     33 H          10.0702   -2.1959   -1.2188 H       1  LIG1        0.0621
     34 H           9.9698   -4.3894   -0.3253 H       1  LIG1        0.0636
     35 H          13.7147   -1.4524    0.9854 H       1  LIG1        0.0625
     36 H          14.9578   -3.4374    1.6153 H       1  LIG1        0.0650
     37 H          15.7930   -3.3245    3.8765 H       1  LIG1        0.0560
     38 H          14.6628   -3.3951    5.2148 H       1  LIG1        0.0560
     39 H          15.9430   -5.5641    4.8625 H       1  LIG1        0.0287
     40 H          14.2109   -5.7763    4.7551 H       1  LIG1        0.0287
     41 H          16.2014   -5.6107    2.4371 H       1  LIG1        0.0270
     42 H          15.2555   -6.9840    2.9015 H       1  LIG1        0.0270
     43 H          14.4523   -5.5955    0.8708 H       1  LIG1        0.0350
     44 H          12.3885   -5.8052    3.1269 H       1  LIG1        0.0551
     45 H          13.7581   -7.6897    0.0035 H       1  LIG1        0.0626
     46 H          13.6812  -10.3029    0.1651 H       1  LIG1        0.0693
     47 H          11.7910   -8.3088    3.7910 H       1  LIG1        0.0697
     48 H          10.8761   -6.0660    1.1786 H       1  LIG1        0.1467
@<TRIPOS>BOND
     1     1     2    1
     2     1    24    1
     3     1    25    1
     4     1    26    1
     5     2     3    1
     6     2     4    1
     7     2     5    1
     8     3    27    1
     9     3    28    1
    10     3    29    1
    11     4    30    1
    12     4    31    1
    13     4    32    1
    14     5     6   ar
    15     5    10   ar
    16     6     7   ar
    17     6    33    1
    18     7     8   ar
    19     7    34    1
    20     8     9   ar
    21     8    23    1
    22     9    10   ar
    23     9    11    1
    24    10    35    1
    25    11    12    1
    26    11    16    1
    27    11    36    1
    28    12    13    1
    29    13    14    1
    30    13    37    1
    31    13    38    1
    32    14    15    1
    33    14    39    1
    34    14    40    1
    35    15    16    1
    36    15    41    1
    37    15    42    1
    38    16    17    1
    39    16    43    1
    40    17    18    1
    41    17    23    1
    42    17    44    1
    43    18    19   ar
    44    18    22   ar
    45    19    20   ar
    46    19    45    1
    47    20    21   ar
    48    20    46    1
    49    21    22   ar
    50    22    47    1
    51    23    48    1
