@<TRIPOS>MOLECULE
CHEMBL1086409
 51 54 0 0 0
SMALL
GASTEIGER
****
Structure written by MMmdl.
@<TRIPOS>ATOM
      1 C          15.2852   -4.6386    7.5377 C.3     1  LIG1       -0.0448
      2 N          14.2140   -3.9638    6.6838 N.4     1  LIG1        0.2266
      3 C          14.7229   -3.0568    5.5568 C.3     1  LIG1       -0.0070
      4 C          14.9031   -3.7791    4.1930 C.3     1  LIG1        0.0990
      5 C          15.0673   -5.3233    4.2376 C.3     1  LIG1       -0.0212
      6 C          15.2106   -5.9104    2.8268 C.3     1  LIG1       -0.0430
      7 C          14.0964   -5.4064    1.8821 C.3     1  LIG1        0.0121
      8 C          12.7040   -6.0577    2.1299 C.3     1  LIG1        0.0514
      9 C          12.7501   -7.5747    2.0307 C.ar    1  LIG1       -0.0268
     10 C          13.2481   -8.1929    0.8744 C.ar    1  LIG1       -0.0541
     11 C          13.3274   -9.5772    0.8022 C.ar    1  LIG1       -0.0261
     12 C          12.9065  -10.3273    1.8986 C.ar    1  LIG1        0.1234
     13 F          12.9781  -11.6576    1.9122 F       1  LIG1       -0.2055
     14 C          12.4005   -9.7294    3.0355 C.ar    1  LIG1       -0.0261
     15 C          12.3196   -8.3522    3.1084 C.ar    1  LIG1       -0.0541
     16 N          11.6986   -5.5069    1.2248 N.pl3   1  LIG1       -0.3364
     17 C          11.7870   -4.1773    0.7812 C.ar    1  LIG1        0.0333
     18 C          10.7766   -3.7112   -0.0571 C.ar    1  LIG1       -0.0400
     19 C          10.8176   -2.4109   -0.5470 C.ar    1  LIG1       -0.0484
     20 C          11.8604   -1.5556   -0.1863 C.ar    1  LIG1        0.0553
     21 C          11.9094   -0.1390   -0.7460 C.3     1  LIG1        0.4174
     22 F          12.5320   -0.1612   -1.9254 F       1  LIG1       -0.1659
     23 F          10.6767    0.3334   -0.9239 F       1  LIG1       -0.1659
     24 F          12.5676    0.6891    0.0651 F       1  LIG1       -0.1659
     25 C          12.8548   -2.0208    0.6812 C.ar    1  LIG1       -0.0427
     26 C          12.8610   -3.3416    1.1411 C.ar    1  LIG1        0.0028
     27 C          14.0088   -3.8657    1.9891 C.3     1  LIG1        0.0907
     28 O          13.7932   -3.4672    3.3434 O.3     1  LIG1       -0.3631
     29 H          14.6948   -5.2041    8.2632 H       1  LIG1        0.0777
     30 H          15.8829   -3.8490    8.0065 H       1  LIG1        0.0777
     31 H          15.8800   -5.2958    6.9019 H       1  LIG1        0.0777
     32 H          13.6178   -4.6706    6.2820 H       1  LIG1        0.2012
     33 H          13.9311   -2.3052    5.5033 H       1  LIG1        0.0839
     34 H          15.6440   -2.5855    5.9141 H       1  LIG1        0.0839
     35 H          15.8092   -3.3451    3.7550 H       1  LIG1        0.0650
     36 H          15.9506   -5.6016    4.8084 H       1  LIG1        0.0292
     37 H          14.2088   -5.7825    4.7320 H       1  LIG1        0.0292
     38 H          16.1820   -5.6237    2.4174 H       1  LIG1        0.0270
     39 H          15.2320   -6.9982    2.8820 H       1  LIG1        0.0270
     40 H          14.4096   -5.6240    0.8610 H       1  LIG1        0.0350
     41 H          12.3673   -5.8233    3.1411 H       1  LIG1        0.0551
     42 H          13.5784   -7.5954    0.0345 H       1  LIG1        0.0622
     43 H          13.7093  -10.0600   -0.0884 H       1  LIG1        0.0646
     44 H          12.0946  -10.3597    3.8597 H       1  LIG1        0.0646
     45 H          11.9422   -7.8995    4.0140 H       1  LIG1        0.0622
     46 H          10.7765   -5.8854    1.4070 H       1  LIG1        0.1467
     47 H           9.9543   -4.3549   -0.3328 H       1  LIG1        0.0636
     48 H          10.0329   -2.0650   -1.2044 H       1  LIG1        0.0624
     49 H          13.6650   -1.3653    0.9686 H       1  LIG1        0.0627
     50 H          14.9422   -3.4219    1.6325 H       1  LIG1        0.0650
     51 H          13.6785   -3.3900    7.3163 H       1  LIG1        0.2012
@<TRIPOS>BOND
     1     1     2    1
     2     1    29    1
     3     1    30    1
     4     1    31    1
     5     2     3    1
     6     2    32    1
     7     2    51    1
     8     3     4    1
     9     3    33    1
    10     3    34    1
    11     4     5    1
    12     4    28    1
    13     4    35    1
    14     5     6    1
    15     5    36    1
    16     5    37    1
    17     6     7    1
    18     6    38    1
    19     6    39    1
    20     7     8    1
    21     7    27    1
    22     7    40    1
    23     8     9    1
    24     8    16    1
    25     8    41    1
    26     9    10   ar
    27     9    15   ar
    28    10    11   ar
    29    10    42    1
    30    11    12   ar
    31    11    43    1
    32    12    13    1
    33    12    14   ar
    34    14    15   ar
    35    14    44    1
    36    15    45    1
    37    16    17    1
    38    16    46    1
    39    17    18   ar
    40    17    26   ar
    41    18    19   ar
    42    18    47    1
    43    19    20   ar
    44    19    48    1
    45    20    21    1
    46    20    25   ar
    47    21    22    1
    48    21    23    1
    49    21    24    1
    50    25    26   ar
    51    25    49    1
    52    26    27    1
    53    27    28    1
    54    27    50    1
