@<TRIPOS>MOLECULE
CHEMBL1085666
 48 51 0 0 0
SMALL
GASTEIGER
****
Structure written by MMmdl.
@<TRIPOS>ATOM
      1 N          14.3165   -4.0041    6.7057 N.4     1  LIG1        0.2204
      2 C          14.6800   -3.0520    5.5568 C.3     1  LIG1       -0.0085
      3 C          14.9014   -3.7767    4.2034 C.3     1  LIG1        0.0990
      4 C          15.0794   -5.3204    4.2560 C.3     1  LIG1       -0.0212
      5 C          15.2134   -5.9116    2.8388 C.3     1  LIG1       -0.0430
      6 C          14.1000   -5.4138    1.8842 C.3     1  LIG1        0.0121
      7 C          12.7075   -6.0661    2.1333 C.3     1  LIG1        0.0514
      8 C          12.7523   -7.5906    2.0360 C.ar    1  LIG1       -0.0269
      9 C          12.3188   -8.3771    3.1048 C.ar    1  LIG1       -0.0568
     10 C          12.4038   -9.7653    3.0219 C.ar    1  LIG1       -0.0614
     11 C          12.9145  -10.3670    1.8742 C.ar    1  LIG1       -0.0617
     12 C          13.3307   -9.5915    0.7997 C.ar    1  LIG1       -0.0614
     13 C          13.2510   -8.2048    0.8812 C.ar    1  LIG1       -0.0568
     14 N          11.7043   -5.5100    1.2252 N.pl3   1  LIG1       -0.3364
     15 C          11.7866   -4.1781    0.7837 C.ar    1  LIG1        0.0333
     16 C          10.7799   -3.7112   -0.0569 C.ar    1  LIG1       -0.0400
     17 C          10.8200   -2.4096   -0.5450 C.ar    1  LIG1       -0.0484
     18 C          11.8586   -1.5528   -0.1813 C.ar    1  LIG1        0.0553
     19 C          11.9069   -0.1362   -0.7423 C.3     1  LIG1        0.4174
     20 F          12.5326   -0.1571   -1.9193 F       1  LIG1       -0.1659
     21 F          10.6732    0.3298   -0.9284 F       1  LIG1       -0.1659
     22 F          12.5588    0.6950    0.0707 F       1  LIG1       -0.1659
     23 C          12.8553   -2.0181    0.6851 C.ar    1  LIG1       -0.0427
     24 C          12.8601   -3.3413    1.1433 C.ar    1  LIG1        0.0028
     25 C          14.0134   -3.8725    1.9818 C.3     1  LIG1        0.0907
     26 O          13.8054   -3.4743    3.3377 O.3     1  LIG1       -0.3631
     27 H          14.1083   -3.4755    7.5374 H       1  LIG1        0.1995
     28 H          15.0831   -4.6260    6.9124 H       1  LIG1        0.1995
     29 H          13.8569   -2.3375    5.5186 H       1  LIG1        0.0839
     30 H          15.5810   -2.5393    5.9003 H       1  LIG1        0.0839
     31 H          15.8116   -3.3319    3.7907 H       1  LIG1        0.0650
     32 H          15.9615   -5.5868    4.8374 H       1  LIG1        0.0292
     33 H          14.2305   -5.7943    4.7513 H       1  LIG1        0.0292
     34 H          16.1803   -5.6225    2.4218 H       1  LIG1        0.0270
     35 H          15.2376   -7.0003    2.8944 H       1  LIG1        0.0270
     36 H          14.4183   -5.6311    0.8642 H       1  LIG1        0.0350
     37 H          12.3776   -5.8170    3.1448 H       1  LIG1        0.0551
     38 H          11.9279   -7.9184    4.0017 H       1  LIG1        0.0621
     39 H          12.0698  -10.3730    3.8508 H       1  LIG1        0.0618
     40 H          12.9571  -11.4450    1.8081 H       1  LIG1        0.0618
     41 H          13.7008  -10.0609   -0.1014 H       1  LIG1        0.0618
     42 H          13.5635   -7.6082    0.0379 H       1  LIG1        0.0621
     43 H          10.7857   -5.9114    1.3751 H       1  LIG1        0.1467
     44 H           9.9547   -4.3494   -0.3318 H       1  LIG1        0.0636
     45 H          10.0333   -2.0723   -1.2046 H       1  LIG1        0.0624
     46 H          13.6741   -1.3662    0.9573 H       1  LIG1        0.0627
     47 H          14.9381   -3.4355    1.5965 H       1  LIG1        0.0650
     48 H          13.5054   -4.5515    6.4618 H       1  LIG1        0.1995
@<TRIPOS>BOND
     1     1     2    1
     2     1    27    1
     3     1    28    1
     4     1    48    1
     5     2     3    1
     6     2    29    1
     7     2    30    1
     8     3     4    1
     9     3    26    1
    10     3    31    1
    11     4     5    1
    12     4    32    1
    13     4    33    1
    14     5     6    1
    15     5    34    1
    16     5    35    1
    17     6     7    1
    18     6    25    1
    19     6    36    1
    20     7     8    1
    21     7    14    1
    22     7    37    1
    23     8     9   ar
    24     8    13   ar
    25     9    10   ar
    26     9    38    1
    27    10    11   ar
    28    10    39    1
    29    11    12   ar
    30    11    40    1
    31    12    13   ar
    32    12    41    1
    33    13    42    1
    34    14    15    1
    35    14    43    1
    36    15    16   ar
    37    15    24   ar
    38    16    17   ar
    39    16    44    1
    40    17    18   ar
    41    17    45    1
    42    18    19    1
    43    18    23   ar
    44    19    20    1
    45    19    21    1
    46    19    22    1
    47    23    24   ar
    48    23    46    1
    49    24    25    1
    50    25    26    1
    51    25    47    1
