@<TRIPOS>MOLECULE
CHEMBL1085895
 61 64 0 0 0
SMALL
GASTEIGER
****
Structure written by MMmdl.
@<TRIPOS>ATOM
      1 O          16.4467   -4.4109    7.4249 O.2     1  LIG1       -0.2529
      2 C          15.2351   -4.6139    7.4730 C.2     1  LIG1        0.2997
      3 N          14.6650   -5.5529    8.2387 N.am    1  LIG1       -0.2993
      4 C          15.3869   -6.4361    9.1585 C.3     1  LIG1        0.0151
      5 C          15.2668   -6.0328   10.6455 C.3     1  LIG1       -0.0140
      6 C          13.8226   -5.9803   11.1627 C.3     1  LIG1        0.0456
      7 O          13.1566   -4.8684   10.5881 O.3     1  LIG1       -0.3950
      8 N          14.3343   -3.9820    6.7011 N.am    1  LIG1       -0.2969
      9 C          14.6936   -3.0974    5.5864 C.3     1  LIG1        0.0393
     10 C          14.8991   -3.7794    4.2042 C.3     1  LIG1        0.0750
     11 C          15.0796   -5.3216    4.2396 C.3     1  LIG1       -0.0247
     12 C          15.2170   -5.9056    2.8282 C.3     1  LIG1       -0.0431
     13 C          14.0982   -5.4118    1.8834 C.3     1  LIG1        0.0120
     14 C          12.7071   -6.0676    2.1263 C.3     1  LIG1        0.0514
     15 C          12.7538   -7.5905    2.0348 C.ar    1  LIG1       -0.0269
     16 C          12.3222   -8.3753    3.1056 C.ar    1  LIG1       -0.0568
     17 C          12.3985   -9.7635    3.0200 C.ar    1  LIG1       -0.0614
     18 C          12.9019  -10.3648    1.8691 C.ar    1  LIG1       -0.0617
     19 C          13.3224   -9.5891    0.7939 C.ar    1  LIG1       -0.0614
     20 C          13.2458   -8.2037    0.8776 C.ar    1  LIG1       -0.0568
     21 N          11.7300   -5.5199    1.1852 N.pl3   1  LIG1       -0.3364
     22 C          11.7894   -4.1781    0.7704 C.ar    1  LIG1        0.0333
     23 C          10.7703   -3.7089   -0.0567 C.ar    1  LIG1       -0.0400
     24 C          10.8105   -2.4059   -0.5418 C.ar    1  LIG1       -0.0484
     25 C          11.8590   -1.5551   -0.1897 C.ar    1  LIG1        0.0553
     26 C          11.9086   -0.1381   -0.7474 C.3     1  LIG1        0.4174
     27 F          10.6756    0.3312   -0.9261 F       1  LIG1       -0.1659
     28 F          12.5656    0.6893    0.0654 F       1  LIG1       -0.1659
     29 F          12.5316   -0.1600   -1.9259 F       1  LIG1       -0.1659
     30 C          12.8601   -2.0232    0.6679 C.ar    1  LIG1       -0.0427
     31 C          12.8600   -3.3430    1.1355 C.ar    1  LIG1        0.0028
     32 C          14.0117   -3.8696    1.9810 C.3     1  LIG1        0.0905
     33 O          13.8055   -3.4605    3.3355 O.3     1  LIG1       -0.3668
     34 H          13.6582   -5.5705    8.3023 H       1  LIG1        0.1502
     35 H          14.9279   -7.4158    9.0362 H       1  LIG1        0.0463
     36 H          16.4371   -6.5451    8.8797 H       1  LIG1        0.0463
     37 H          15.8294   -6.7485   11.2505 H       1  LIG1        0.0302
     38 H          15.7509   -5.0717   10.8267 H       1  LIG1        0.0302
     39 H          13.3103   -6.8986   10.8617 H       1  LIG1        0.0557
     40 H          13.8037   -5.9486   12.2545 H       1  LIG1        0.0557
     41 H          12.3548   -4.6854   11.0876 H       1  LIG1        0.2094
     42 H          13.3526   -4.1690    6.8347 H       1  LIG1        0.1503
     43 H          13.9202   -2.3332    5.5075 H       1  LIG1        0.0488
     44 H          15.5994   -2.5443    5.8485 H       1  LIG1        0.0488
     45 H          15.8025   -3.3267    3.7880 H       1  LIG1        0.0612
     46 H          15.9600   -5.5867    4.8260 H       1  LIG1        0.0291
     47 H          14.2304   -5.7872    4.7430 H       1  LIG1        0.0291
     48 H          16.1836   -5.6053    2.4186 H       1  LIG1        0.0270
     49 H          15.2476   -6.9928    2.8841 H       1  LIG1        0.0270
     50 H          14.4127   -5.6391    0.8639 H       1  LIG1        0.0350
     51 H          12.3723   -5.8162    3.1365 H       1  LIG1        0.0551
     52 H          11.9359   -7.9127    4.0028 H       1  LIG1        0.0621
     53 H          12.0683  -10.3720    3.8500 H       1  LIG1        0.0618
     54 H          12.9496  -11.4422    1.8040 H       1  LIG1        0.0618
     55 H          13.6904  -10.0586   -0.1062 H       1  LIG1        0.0618
     56 H          13.5615   -7.6046    0.0370 H       1  LIG1        0.0621
     57 H          10.9273   -6.1033    0.9966 H       1  LIG1        0.1467
     58 H           9.9481   -4.3512   -0.3337 H       1  LIG1        0.0636
     59 H          10.0229   -2.0607   -1.1956 H       1  LIG1        0.0624
     60 H          13.6834   -1.3760    0.9343 H       1  LIG1        0.0627
     61 H          14.9403   -3.4348    1.6035 H       1  LIG1        0.0650
@<TRIPOS>BOND
     1     1     2    2
     2     2     3   am
     3     2     8   am
     4     3     4    1
     5     3    34    1
     6     4     5    1
     7     4    35    1
     8     4    36    1
     9     5     6    1
    10     5    37    1
    11     5    38    1
    12     6     7    1
    13     6    39    1
    14     6    40    1
    15     7    41    1
    16     8     9    1
    17     8    42    1
    18     9    10    1
    19     9    43    1
    20     9    44    1
    21    10    11    1
    22    10    33    1
    23    10    45    1
    24    11    12    1
    25    11    46    1
    26    11    47    1
    27    12    13    1
    28    12    48    1
    29    12    49    1
    30    13    14    1
    31    13    32    1
    32    13    50    1
    33    14    15    1
    34    14    21    1
    35    14    51    1
    36    15    16   ar
    37    15    20   ar
    38    16    17   ar
    39    16    52    1
    40    17    18   ar
    41    17    53    1
    42    18    19   ar
    43    18    54    1
    44    19    20   ar
    45    19    55    1
    46    20    56    1
    47    21    22    1
    48    21    57    1
    49    22    23   ar
    50    22    31   ar
    51    23    24   ar
    52    23    58    1
    53    24    25   ar
    54    24    59    1
    55    25    26    1
    56    25    30   ar
    57    26    27    1
    58    26    28    1
    59    26    29    1
    60    30    31   ar
    61    30    60    1
    62    31    32    1
    63    32    33    1
    64    32    61    1
