@<TRIPOS>MOLECULE
CHEMBL1078998
 48 51 0 0 0
SMALL
GASTEIGER
****
Structure written by MMmdl.
@<TRIPOS>ATOM
      1 C          12.7976    0.8124    0.0757 C.3     1  LIG1       -0.0560
      2 C          11.9223   -0.1613   -0.7525 C.3     1  LIG1       -0.0127
      3 C          12.4837   -0.2199   -2.1743 C.3     1  LIG1       -0.0560
      4 C          10.4601    0.3453   -0.8043 C.3     1  LIG1       -0.0560
      5 C          11.8888   -1.5853   -0.1835 C.ar    1  LIG1       -0.0415
      6 C          10.8508   -2.4597   -0.5444 C.ar    1  LIG1       -0.0563
      7 C          10.7949   -3.7505   -0.0484 C.ar    1  LIG1       -0.0402
      8 C          11.8123   -4.2146    0.7836 C.ar    1  LIG1        0.0333
      9 C          12.8780   -3.3664    1.1426 C.ar    1  LIG1        0.0026
     10 C          12.8759   -2.0519    0.6772 C.ar    1  LIG1       -0.0507
     11 C          14.0261   -3.8755    1.9883 C.3     1  LIG1        0.0901
     12 O          13.8055   -3.4421    3.3329 O.3     1  LIG1       -0.3716
     13 C          14.8759   -3.7853    4.2185 C.3     1  LIG1        0.0485
     14 C          15.0685   -5.3210    4.2539 C.3     1  LIG1       -0.0290
     15 C          15.2293   -5.8998    2.8448 C.3     1  LIG1       -0.0434
     16 C          14.1243   -5.4049    1.8889 C.3     1  LIG1        0.0125
     17 C          12.7346   -6.0749    2.1322 C.3     1  LIG1        0.0575
     18 C          12.7930   -7.5766    1.9454 C.ar    1  LIG1        0.0102
     19 C          12.2219   -8.5635    2.7386 C.ar    1  LIG1       -0.0497
     20 C          12.4438   -9.8621    2.2888 C.ar    1  LIG1       -0.0544
     21 C          13.1981   -9.8931    1.1291 C.ar    1  LIG1       -0.0240
     22 S          13.6519   -8.2955    0.6241 S.2     1  LIG1       -0.0997
     23 N          11.7340   -5.5417    1.2135 N.pl3   1  LIG1       -0.3359
     24 H          12.8648    1.8235   -0.3318 H       1  LIG1        0.0238
     25 H          13.7971    0.4041    0.0942 H       1  LIG1        0.0238
     26 H          12.5322    0.8833    1.1341 H       1  LIG1        0.0238
     27 H          12.5385    0.7348   -2.6951 H       1  LIG1        0.0238
     28 H          11.7899   -0.8645   -2.7036 H       1  LIG1        0.0238
     29 H          13.4739   -0.6659   -2.2106 H       1  LIG1        0.0238
     30 H           9.7744   -0.1972   -1.4501 H       1  LIG1        0.0238
     31 H          10.2698    1.3637   -1.1111 H       1  LIG1        0.0238
     32 H          10.1339    0.2754    0.2174 H       1  LIG1        0.0238
     33 H          10.0622   -2.1793   -1.2124 H       1  LIG1        0.0621
     34 H           9.9663   -4.3825   -0.3261 H       1  LIG1        0.0636
     35 H          13.7100   -1.4444    0.9812 H       1  LIG1        0.0625
     36 H          14.9558   -3.4395    1.6104 H       1  LIG1        0.0650
     37 H          15.7951   -3.3212    3.8743 H       1  LIG1        0.0560
     38 H          14.6645   -3.3979    5.2121 H       1  LIG1        0.0560
     39 H          15.9431   -5.5680    4.8576 H       1  LIG1        0.0287
     40 H          14.2113   -5.7762    4.7508 H       1  LIG1        0.0287
     41 H          16.1982   -5.6115    2.4315 H       1  LIG1        0.0270
     42 H          15.2512   -6.9867    2.8952 H       1  LIG1        0.0270
     43 H          14.4370   -5.6167    0.8661 H       1  LIG1        0.0351
     44 H          12.3917   -5.8158    3.1334 H       1  LIG1        0.0556
     45 H          11.6528   -8.3432    3.6240 H       1  LIG1        0.0626
     46 H          12.0628  -10.7452    2.7870 H       1  LIG1        0.0623
     47 H          13.5002  -10.7531    0.5568 H       1  LIG1        0.0693
     48 H          10.8774   -6.0654    1.1650 H       1  LIG1        0.1467
@<TRIPOS>BOND
     1     1     2    1
     2     1    24    1
     3     1    25    1
     4     1    26    1
     5     2     3    1
     6     2     4    1
     7     2     5    1
     8     3    27    1
     9     3    28    1
    10     3    29    1
    11     4    30    1
    12     4    31    1
    13     4    32    1
    14     5     6   ar
    15     5    10   ar
    16     6     7   ar
    17     6    33    1
    18     7     8   ar
    19     7    34    1
    20     8     9   ar
    21     8    23    1
    22     9    10   ar
    23     9    11    1
    24    10    35    1
    25    11    12    1
    26    11    16    1
    27    11    36    1
    28    12    13    1
    29    13    14    1
    30    13    37    1
    31    13    38    1
    32    14    15    1
    33    14    39    1
    34    14    40    1
    35    15    16    1
    36    15    41    1
    37    15    42    1
    38    16    17    1
    39    16    43    1
    40    17    18    1
    41    17    23    1
    42    17    44    1
    43    18    19   ar
    44    18    22   ar
    45    19    20   ar
    46    19    45    1
    47    20    21   ar
    48    20    46    1
    49    21    22   ar
    50    21    47    1
    51    23    48    1
