@<TRIPOS>MOLECULE
CHEMBL1084143
 74 77 0 0 0
SMALL
GASTEIGER
****
Structure written by MMmdl.
@<TRIPOS>ATOM
      1 C          11.3979   -0.1021   -2.1574 C.3     1  LIG1       -0.0586
      2 C          11.9038   -0.1354   -0.7457 C.3     1  LIG1       -0.0215
      3 C          11.0501    0.7757    0.0856 C.3     1  LIG1       -0.0586
      4 C          11.8578   -1.5536   -0.1865 C.ar    1  LIG1       -0.0443
      5 C          10.8089   -2.4050   -0.5396 C.ar    1  LIG1       -0.0566
      6 C          10.7743   -3.7096   -0.0570 C.ar    1  LIG1       -0.0402
      7 C          11.7936   -4.1831    0.7614 C.ar    1  LIG1        0.0333
      8 C          12.8662   -3.3440    1.1312 C.ar    1  LIG1        0.0026
      9 C          12.8594   -2.0221    0.6688 C.ar    1  LIG1       -0.0509
     10 C          14.0156   -3.8719    1.9779 C.3     1  LIG1        0.0905
     11 O          13.8095   -3.4697    3.3345 O.3     1  LIG1       -0.3670
     12 C          14.9090   -3.7899    4.1939 C.3     1  LIG1        0.0735
     13 C          14.7292   -3.0772    5.5493 C.3     1  LIG1        0.0434
     14 N          14.3931   -3.9357    6.7113 N.3     1  LIG1       -0.1921
     15 S          15.6866   -4.1881    7.8512 S.O2    1  LIG1        0.0296
     16 O          15.9605   -2.8994    8.4965 O.2     1  LIG1       -0.1582
     17 O          16.7692   -4.9053    7.1723 O.2     1  LIG1       -0.1582
     18 C          14.8572   -5.3740    9.0989 C.3     1  LIG1        0.0865
     19 C          15.9171   -5.9921   10.0050 C.3     1  LIG1        0.0083
     20 C          15.3040   -6.9172   11.0141 C.3     1  LIG1       -0.0309
     21 N          16.3536   -7.4832   11.8564 N.4     1  LIG1        0.2309
     22 C          15.7569   -8.3836   12.8386 C.3     1  LIG1       -0.0433
     23 C          17.2969   -8.2258   11.0254 C.3     1  LIG1       -0.0433
     24 C          15.0802   -5.3264    4.2516 C.3     1  LIG1       -0.0249
     25 C          15.2184   -5.9103    2.8356 C.3     1  LIG1       -0.0431
     26 C          14.1038   -5.4145    1.8827 C.3     1  LIG1        0.0120
     27 C          12.7108   -6.0690    2.1214 C.3     1  LIG1        0.0514
     28 C          12.7593   -7.5926    2.0373 C.ar    1  LIG1       -0.0269
     29 C          13.2528   -8.2067    0.8813 C.ar    1  LIG1       -0.0568
     30 C          13.3297   -9.5928    0.7978 C.ar    1  LIG1       -0.0614
     31 C          12.9076  -10.3673    1.8725 C.ar    1  LIG1       -0.0617
     32 C          12.4034   -9.7655    3.0228 C.ar    1  LIG1       -0.0614
     33 C          12.3256   -8.3763    3.1078 C.ar    1  LIG1       -0.0568
     34 N          11.7374   -5.5233    1.1763 N.pl3   1  LIG1       -0.3364
     35 H          12.0073   -0.7596   -2.7774 H       1  LIG1        0.0235
     36 H          11.4572    0.9166   -2.5407 H       1  LIG1        0.0235
     37 H          10.3615   -0.4390   -2.1801 H       1  LIG1        0.0235
     38 H          12.9225    0.2532   -0.7443 H       1  LIG1        0.0343
     39 H          11.4035    0.7643    1.1166 H       1  LIG1        0.0235
     40 H          10.0154    0.4346    0.0524 H       1  LIG1        0.0235
     41 H          11.1110    1.7902   -0.3082 H       1  LIG1        0.0235
     42 H          10.0204   -2.0579   -1.1913 H       1  LIG1        0.0621
     43 H           9.9573   -4.3549   -0.3431 H       1  LIG1        0.0636
     44 H          13.6721   -1.3692    0.9509 H       1  LIG1        0.0624
     45 H          14.9390   -3.4275    1.6025 H       1  LIG1        0.0650
     46 H          15.8061   -3.3644    3.7393 H       1  LIG1        0.0609
     47 H          15.6460   -2.5318    5.7826 H       1  LIG1        0.0467
     48 H          13.9634   -2.3063    5.4584 H       1  LIG1        0.0467
     49 H          14.0645   -4.8324    6.3635 H       1  LIG1        0.1477
     50 H          14.1276   -4.7955    9.6643 H       1  LIG1        0.0517
     51 H          14.3350   -6.1477    8.5414 H       1  LIG1        0.0517
     52 H          16.6443   -6.5599    9.4232 H       1  LIG1        0.0333
     53 H          16.4626   -5.2168   10.5445 H       1  LIG1        0.0333
     54 H          14.5998   -6.3628   11.6345 H       1  LIG1        0.0815
     55 H          14.7790   -7.7211   10.4983 H       1  LIG1        0.0815
     56 H          15.2319   -9.1875   12.3228 H       1  LIG1        0.0777
     57 H          15.0527   -7.8292   13.4590 H       1  LIG1        0.0777
     58 H          16.5405   -8.8062   13.4674 H       1  LIG1        0.0777
     59 H          16.7719   -9.0297   10.5095 H       1  LIG1        0.0777
     60 H          18.0805   -8.6484   11.6542 H       1  LIG1        0.0777
     61 H          17.7424   -7.5536   10.2921 H       1  LIG1        0.0777
     62 H          15.9570   -5.5928    4.8416 H       1  LIG1        0.0291
     63 H          14.2182   -5.7833    4.7368 H       1  LIG1        0.0291
     64 H          16.1821   -5.6020    2.4289 H       1  LIG1        0.0270
     65 H          15.2502   -6.9993    2.8743 H       1  LIG1        0.0270
     66 H          14.4134   -5.6570    0.8656 H       1  LIG1        0.0350
     67 H          12.3692   -5.7931    3.1202 H       1  LIG1        0.0551
     68 H          13.5722   -7.6049    0.0431 H       1  LIG1        0.0621
     69 H          13.7130  -10.0631   -0.0960 H       1  LIG1        0.0618
     70 H          12.9657  -11.4445    1.8120 H       1  LIG1        0.0618
     71 H          12.0728  -10.3765    3.8502 H       1  LIG1        0.0618
     72 H          11.9366   -7.9114    4.0019 H       1  LIG1        0.0621
     73 H          10.9582   -6.1105    0.9179 H       1  LIG1        0.1467
     74 H          16.8401   -6.7382   12.3344 H       1  LIG1        0.2028
@<TRIPOS>BOND
     1     1     2    1
     2     1    35    1
     3     1    36    1
     4     1    37    1
     5     2     3    1
     6     2     4    1
     7     2    38    1
     8     3    39    1
     9     3    40    1
    10     3    41    1
    11     4     5   ar
    12     4     9   ar
    13     5     6   ar
    14     5    42    1
    15     6     7   ar
    16     6    43    1
    17     7     8   ar
    18     7    34    1
    19     8     9   ar
    20     8    10    1
    21     9    44    1
    22    10    11    1
    23    10    26    1
    24    10    45    1
    25    11    12    1
    26    12    13    1
    27    12    24    1
    28    12    46    1
    29    13    14    1
    30    13    47    1
    31    13    48    1
    32    14    15    1
    33    14    49    1
    34    15    16    2
    35    15    17    2
    36    15    18    1
    37    18    19    1
    38    18    50    1
    39    18    51    1
    40    19    20    1
    41    19    52    1
    42    19    53    1
    43    20    21    1
    44    20    54    1
    45    20    55    1
    46    21    22    1
    47    21    23    1
    48    21    74    1
    49    22    56    1
    50    22    57    1
    51    22    58    1
    52    23    59    1
    53    23    60    1
    54    23    61    1
    55    24    25    1
    56    24    62    1
    57    24    63    1
    58    25    26    1
    59    25    64    1
    60    25    65    1
    61    26    27    1
    62    26    66    1
    63    27    28    1
    64    27    34    1
    65    27    67    1
    66    28    29   ar
    67    28    33   ar
    68    29    30   ar
    69    29    68    1
    70    30    31   ar
    71    30    69    1
    72    31    32   ar
    73    31    70    1
    74    32    33   ar
    75    32    71    1
    76    33    72    1
    77    34    73    1
