CHEMBL1082248
 OpenBabel02152110423D
Structure written by MMmdl.
 48 51  0  0  1  0  0  0  0  0999 V2000
   15.2950   -4.6489    7.5427 C   0  0  0  0  0  0  0  0  0  0  0  0
   14.2431   -3.9717    6.6832 N   0  3  0  0  0  0  0  0  0  0  0  0
   14.7152   -3.0566    5.5506 C   0  0  0  0  0  0  0  0  0  0  0  0
   14.8996   -3.7854    4.1962 C   0  0  1  0  0  0  0  0  0  0  0  0
   15.0784   -5.3263    4.2419 C   0  0  0  0  0  0  0  0  0  0  0  0
   15.2145   -5.9089    2.8275 C   0  0  0  0  0  0  0  0  0  0  0  0
   14.0958   -5.4103    1.8854 C   0  0  1  0  0  0  0  0  0  0  0  0
   12.7046   -6.0664    2.1334 C   0  0  2  0  0  0  0  0  0  0  0  0
   12.7522   -7.5891    2.0319 C   0  0  0  0  0  0  0  0  0  0  0  0
   13.2426   -8.2016    0.8733 C   0  0  0  0  0  0  0  0  0  0  0  0
   13.3140   -9.5878    0.7904 C   0  0  0  0  0  0  0  0  0  0  0  0
   12.8993  -10.3629    1.8685 C   0  0  0  0  0  0  0  0  0  0  0  0
   12.3976   -9.7624    3.0199 C   0  0  0  0  0  0  0  0  0  0  0  0
   12.3188   -8.3746    3.1014 C   0  0  0  0  0  0  0  0  0  0  0  0
   11.7003   -5.5083    1.2297 N   0  0  0  0  0  0  0  0  0  0  0  0
   11.7953   -4.1716    0.7885 C   0  0  0  0  0  0  0  0  0  0  0  0
   10.7805   -3.6907   -0.0459 C   0  0  0  0  0  0  0  0  0  0  0  0
    9.7395   -4.4635   -0.3381 F   0  0  0  0  0  0  0  0  0  0  0  0
   10.8168   -2.3885   -0.5402 C   0  0  0  0  0  0  0  0  0  0  0  0
   11.8588   -1.5562   -0.1789 C   0  0  0  0  0  0  0  0  0  0  0  0
   11.9219    0.2266   -0.8239 Br  0  0  0  0  0  0  0  0  0  0  0  0
   12.8579   -2.0181    0.6739 C   0  0  0  0  0  0  0  0  0  0  0  0
   12.8701   -3.3425    1.1348 C   0  0  0  0  0  0  0  0  0  0  0  0
   14.0136   -3.8673    1.9896 C   0  0  1  0  0  0  0  0  0  0  0  0
   13.8021   -3.4602    3.3414 O   0  0  0  0  0  0  0  0  0  0  0  0
   14.6722   -5.3376    8.1135 H   0  0  0  0  0  0  0  0  0  0  0  0
   15.7378   -3.8667    8.1578 H   0  0  0  0  0  0  0  0  0  0  0  0
   15.9889   -5.1440    6.8693 H   0  0  0  0  0  0  0  0  0  0  0  0
   13.6986   -4.7078    6.2653 H   0  0  0  0  0  0  0  0  0  0  0  0
   13.9006   -2.3314    5.5188 H   0  0  0  0  0  0  0  0  0  0  0  0
   15.6229   -2.5742    5.9093 H   0  0  0  0  0  0  0  0  0  0  0  0
   15.8010   -3.3533    3.7592 H   0  0  0  0  0  0  0  0  0  0  0  0
   15.9669   -5.5897    4.8122 H   0  0  0  0  0  0  0  0  0  0  0  0
   14.2332   -5.7983    4.7432 H   0  0  0  0  0  0  0  0  0  0  0  0
   16.1816   -5.6138    2.4140 H   0  0  0  0  0  0  0  0  0  0  0  0
   15.2390   -6.9966    2.8739 H   0  0  0  0  0  0  0  0  0  0  0  0
   14.4023   -5.6396    0.8642 H   0  0  0  0  0  0  0  0  0  0  0  0
   12.3631   -5.8282    3.1420 H   0  0  0  0  0  0  0  0  0  0  0  0
   13.5605   -7.6046    0.0315 H   0  0  0  0  0  0  0  0  0  0  0  0
   13.6817  -10.0581   -0.1090 H   0  0  0  0  0  0  0  0  0  0  0  0
   12.9563  -11.4399    1.8085 H   0  0  0  0  0  0  0  0  0  0  0  0
   12.0729  -10.3710    3.8527 H   0  0  0  0  0  0  0  0  0  0  0  0
   11.9266   -7.9115    3.9950 H   0  0  0  0  0  0  0  0  0  0  0  0
   10.7715   -5.8527    1.4458 H   0  0  0  0  0  0  0  0  0  0  0  0
   10.0125   -2.0341   -1.1684 H   0  0  0  0  0  0  0  0  0  0  0  0
   13.6352   -1.3316    0.9629 H   0  0  0  0  0  0  0  0  0  0  0  0
   14.9508   -3.4231    1.6469 H   0  0  0  0  0  0  0  0  0  0  0  0
   13.6821   -3.4293    7.3237 H   0  0  0  0  0  0  0  0  0  0  0  0
  1  2  1  0  0  0  0
  1 26  1  0  0  0  0
  1 27  1  0  0  0  0
  1 28  1  0  0  0  0
  2  3  1  0  0  0  0
  2 29  1  0  0  0  0
  2 48  1  0  0  0  0
  3  4  1  0  0  0  0
  3 30  1  0  0  0  0
  3 31  1  0  0  0  0
  4  5  1  0  0  0  0
  4 25  1  0  0  0  0
  4 32  1  6  0  0  0
  5  6  1  0  0  0  0
  5 33  1  0  0  0  0
  5 34  1  0  0  0  0
  6  7  1  0  0  0  0
  6 35  1  0  0  0  0
  6 36  1  0  0  0  0
  7  8  1  0  0  0  0
  7 24  1  0  0  0  0
  7 37  1  6  0  0  0
  8  9  1  0  0  0  0
  8 15  1  0  0  0  0
  8 38  1  1  0  0  0
  9 10  2  0  0  0  0
  9 14  1  0  0  0  0
 10 11  1  0  0  0  0
 10 39  1  0  0  0  0
 11 12  2  0  0  0  0
 11 40  1  0  0  0  0
 12 13  1  0  0  0  0
 12 41  1  0  0  0  0
 13 14  2  0  0  0  0
 13 42  1  0  0  0  0
 14 43  1  0  0  0  0
 15 16  1  0  0  0  0
 15 44  1  0  0  0  0
 16 17  2  0  0  0  0
 16 23  1  0  0  0  0
 17 18  1  0  0  0  0
 17 19  1  0  0  0  0
 19 20  2  0  0  0  0
 19 45  1  0  0  0  0
 20 21  1  0  0  0  0
 20 22  1  0  0  0  0
 22 23  2  0  0  0  0
 22 46  1  0  0  0  0
 23 24  1  0  0  0  0
 24 25  1  0  0  0  0
 24 47  1  6  0  0  0
M  CHG  1   2   1
M  END
>  <ID>
CHEMBL1082248

>  <IC50[nM]>
3

$$$$
