CHEMBL1088740
 OpenBabel02152110423D
Structure written by MMmdl.
 42 45  0  0  1  0  0  0  0  0999 V2000
   14.8892   -3.7991    4.1929 C   0  0  0  0  0  0  0  0  0  0  0  0
   15.0808   -5.3250    4.2402 C   0  0  0  0  0  0  0  0  0  0  0  0
   15.2237   -5.9069    2.8274 C   0  0  0  0  0  0  0  0  0  0  0  0
   14.1038   -5.4118    1.8796 C   0  0  1  0  0  0  0  0  0  0  0  0
   12.7087   -6.0667    2.1153 C   0  0  2  0  0  0  0  0  0  0  0  0
   12.7572   -7.5920    2.0339 C   0  0  0  0  0  0  0  0  0  0  0  0
   12.3194   -8.3758    3.1038 C   0  0  0  0  0  0  0  0  0  0  0  0
   12.3980   -9.7668    3.0196 C   0  0  0  0  0  0  0  0  0  0  0  0
   12.9045  -10.3679    1.8688 C   0  0  0  0  0  0  0  0  0  0  0  0
   13.3260   -9.5931    0.7968 C   0  0  0  0  0  0  0  0  0  0  0  0
   13.2504   -8.2090    0.8799 C   0  0  0  0  0  0  0  0  0  0  0  0
   11.7397   -5.5251    1.1637 N   0  0  0  0  0  0  0  0  0  0  0  0
   11.7924   -4.1803    0.7520 C   0  0  0  0  0  0  0  0  0  0  0  0
   10.7746   -3.7011   -0.0615 C   0  0  0  0  0  0  0  0  0  0  0  0
   10.8035   -2.4006   -0.5426 C   0  0  0  0  0  0  0  0  0  0  0  0
   11.8593   -1.5510   -0.1937 C   0  0  0  0  0  0  0  0  0  0  0  0
   11.9084   -0.1473   -0.7566 C   0  0  0  0  0  0  0  0  0  0  0  0
   12.8529   -2.0176    0.6651 C   0  0  0  0  0  0  0  0  0  0  0  0
   12.8644   -3.3330    1.1272 C   0  0  0  0  0  0  0  0  0  0  0  0
   14.0098   -3.8678    1.9787 C   0  0  1  0  0  0  0  0  0  0  0  0
   13.8065   -3.4533    3.3284 O   0  0  0  0  0  0  0  0  0  0  0  0
   15.8099   -3.3288    3.8333 H   0  0  0  0  0  0  0  0  0  0  0  0
   14.2311   -5.7855    4.7467 H   0  0  0  0  0  0  0  0  0  0  0  0
   15.9615   -5.5791    4.8331 H   0  0  0  0  0  0  0  0  0  0  0  0
   15.2499   -6.9959    2.8809 H   0  0  0  0  0  0  0  0  0  0  0  0
   16.1893   -5.6105    2.4108 H   0  0  0  0  0  0  0  0  0  0  0  0
   14.4171   -5.6329    0.8595 H   0  0  0  0  0  0  0  0  0  0  0  0
   12.3631   -5.8134    3.1215 H   0  0  0  0  0  0  0  0  0  0  0  0
   11.9272   -7.9179    3.9995 H   0  0  0  0  0  0  0  0  0  0  0  0
   12.0645  -10.3747    3.8484 H   0  0  0  0  0  0  0  0  0  0  0  0
   12.9482  -11.4455    1.8024 H   0  0  0  0  0  0  0  0  0  0  0  0
   13.6941  -10.0607   -0.1056 H   0  0  0  0  0  0  0  0  0  0  0  0
   13.5643   -7.6071    0.0381 H   0  0  0  0  0  0  0  0  0  0  0  0
   10.9595   -6.1267    0.9492 H   0  0  0  0  0  0  0  0  0  0  0  0
    9.9494   -4.3500   -0.3377 H   0  0  0  0  0  0  0  0  0  0  0  0
   10.0192   -2.0503   -1.1980 H   0  0  0  0  0  0  0  0  0  0  0  0
   12.3953    0.5387   -0.0602 H   0  0  0  0  0  0  0  0  0  0  0  0
   13.6797   -1.3606    0.9301 H   0  0  0  0  0  0  0  0  0  0  0  0
   14.9415   -3.4345    1.6021 H   0  0  0  0  0  0  0  0  0  0  0  0
   10.9014    0.2420   -0.9190 H   0  0  0  0  0  0  0  0  0  0  0  0
   12.4520   -0.1379   -1.7028 H   0  0  0  0  0  0  0  0  0  0  0  0
   14.7141   -3.3944    5.1910 H   0  0  0  0  0  0  0  0  0  0  0  0
  1  2  1  0  0  0  0
  1 21  1  0  0  0  0
  1 22  1  0  0  0  0
  1 42  1  0  0  0  0
  2  3  1  0  0  0  0
  2 23  1  0  0  0  0
  2 24  1  0  0  0  0
  3  4  1  0  0  0  0
  3 25  1  0  0  0  0
  3 26  1  0  0  0  0
  4  5  1  0  0  0  0
  4 20  1  0  0  0  0
  4 27  1  6  0  0  0
  5  6  1  0  0  0  0
  5 12  1  0  0  0  0
  5 28  1  1  0  0  0
  6  7  2  0  0  0  0
  6 11  1  0  0  0  0
  7  8  1  0  0  0  0
  7 29  1  0  0  0  0
  8  9  2  0  0  0  0
  8 30  1  0  0  0  0
  9 10  1  0  0  0  0
  9 31  1  0  0  0  0
 10 11  2  0  0  0  0
 10 32  1  0  0  0  0
 11 33  1  0  0  0  0
 12 13  1  0  0  0  0
 12 34  1  0  0  0  0
 13 14  2  0  0  0  0
 13 19  1  0  0  0  0
 14 15  1  0  0  0  0
 14 35  1  0  0  0  0
 15 16  2  0  0  0  0
 15 36  1  0  0  0  0
 16 17  1  0  0  0  0
 16 18  1  0  0  0  0
 17 37  1  0  0  0  0
 17 40  1  0  0  0  0
 17 41  1  0  0  0  0
 18 19  2  0  0  0  0
 18 38  1  0  0  0  0
 19 20  1  0  0  0  0
 20 21  1  0  0  0  0
 20 39  1  6  0  0  0
M  END
>  <ID>
CHEMBL1088740

>  <IC50[nM]>
420

$$$$
