@<TRIPOS>MOLECULE
CHEMBL1088740
 42 45 0 0 0
SMALL
GASTEIGER
****
Structure written by MMmdl.
@<TRIPOS>ATOM
      1 C          14.8892   -3.7991    4.1929 C.3     1  LIG1        0.0485
      2 C          15.0808   -5.3250    4.2402 C.3     1  LIG1       -0.0290
      3 C          15.2237   -5.9069    2.8274 C.3     1  LIG1       -0.0435
      4 C          14.1038   -5.4118    1.8796 C.3     1  LIG1        0.0120
      5 C          12.7087   -6.0667    2.1153 C.3     1  LIG1        0.0514
      6 C          12.7572   -7.5920    2.0339 C.ar    1  LIG1       -0.0269
      7 C          12.3194   -8.3758    3.1038 C.ar    1  LIG1       -0.0568
      8 C          12.3980   -9.7668    3.0196 C.ar    1  LIG1       -0.0614
      9 C          12.9045  -10.3679    1.8688 C.ar    1  LIG1       -0.0617
     10 C          13.3260   -9.5931    0.7968 C.ar    1  LIG1       -0.0614
     11 C          13.2504   -8.2090    0.8799 C.ar    1  LIG1       -0.0568
     12 N          11.7397   -5.5251    1.1637 N.pl3   1  LIG1       -0.3364
     13 C          11.7924   -4.1803    0.7520 C.ar    1  LIG1        0.0333
     14 C          10.7746   -3.7011   -0.0615 C.ar    1  LIG1       -0.0402
     15 C          10.8035   -2.4006   -0.5426 C.ar    1  LIG1       -0.0571
     16 C          11.8593   -1.5510   -0.1937 C.ar    1  LIG1       -0.0500
     17 C          11.9084   -0.1473   -0.7566 C.3     1  LIG1       -0.0397
     18 C          12.8529   -2.0176    0.6651 C.ar    1  LIG1       -0.0514
     19 C          12.8644   -3.3330    1.1272 C.ar    1  LIG1        0.0025
     20 C          14.0098   -3.8678    1.9787 C.3     1  LIG1        0.0901
     21 O          13.8065   -3.4533    3.3284 O.3     1  LIG1       -0.3716
     22 H          15.8099   -3.3288    3.8333 H       1  LIG1        0.0560
     23 H          14.2311   -5.7855    4.7467 H       1  LIG1        0.0287
     24 H          15.9615   -5.5791    4.8331 H       1  LIG1        0.0287
     25 H          15.2499   -6.9959    2.8809 H       1  LIG1        0.0270
     26 H          16.1893   -5.6105    2.4108 H       1  LIG1        0.0270
     27 H          14.4171   -5.6329    0.8595 H       1  LIG1        0.0350
     28 H          12.3631   -5.8134    3.1215 H       1  LIG1        0.0551
     29 H          11.9272   -7.9179    3.9995 H       1  LIG1        0.0621
     30 H          12.0645  -10.3747    3.8484 H       1  LIG1        0.0618
     31 H          12.9482  -11.4455    1.8024 H       1  LIG1        0.0618
     32 H          13.6941  -10.0607   -0.1056 H       1  LIG1        0.0618
     33 H          13.5643   -7.6071    0.0381 H       1  LIG1        0.0621
     34 H          10.9595   -6.1267    0.9492 H       1  LIG1        0.1467
     35 H           9.9494   -4.3500   -0.3377 H       1  LIG1        0.0636
     36 H          10.0192   -2.0503   -1.1980 H       1  LIG1        0.0621
     37 H          12.3953    0.5387   -0.0602 H       1  LIG1        0.0278
     38 H          13.6797   -1.3606    0.9301 H       1  LIG1        0.0624
     39 H          14.9415   -3.4345    1.6021 H       1  LIG1        0.0650
     40 H          10.9014    0.2420   -0.9190 H       1  LIG1        0.0278
     41 H          12.4520   -0.1379   -1.7028 H       1  LIG1        0.0278
     42 H          14.7141   -3.3944    5.1910 H       1  LIG1        0.0560
@<TRIPOS>BOND
     1     1     2    1
     2     1    21    1
     3     1    22    1
     4     1    42    1
     5     2     3    1
     6     2    23    1
     7     2    24    1
     8     3     4    1
     9     3    25    1
    10     3    26    1
    11     4     5    1
    12     4    20    1
    13     4    27    1
    14     5     6    1
    15     5    12    1
    16     5    28    1
    17     6     7   ar
    18     6    11   ar
    19     7     8   ar
    20     7    29    1
    21     8     9   ar
    22     8    30    1
    23     9    10   ar
    24     9    31    1
    25    10    11   ar
    26    10    32    1
    27    11    33    1
    28    12    13    1
    29    12    34    1
    30    13    14   ar
    31    13    19   ar
    32    14    15   ar
    33    14    35    1
    34    15    16   ar
    35    15    36    1
    36    16    17    1
    37    16    18   ar
    38    17    37    1
    39    17    40    1
    40    17    41    1
    41    18    19   ar
    42    18    38    1
    43    19    20    1
    44    20    21    1
    45    20    39    1
