CHEMBL1089056
 OpenBabel02152110423D
Structure written by MMmdl.
 51 54  0  0  1  0  0  0  0  0999 V2000
   12.8440    0.7919    0.0923 C   0  0  0  0  0  0  0  0  0  0  0  0
   11.9510   -0.1740   -0.7292 C   0  0  0  0  0  0  0  0  0  0  0  0
   10.5043    0.3281   -0.7907 C   0  0  0  0  0  0  0  0  0  0  0  0
   12.4899   -0.2213   -2.1417 C   0  0  0  0  0  0  0  0  0  0  0  0
   11.8886   -1.5912   -0.1659 C   0  0  0  0  0  0  0  0  0  0  0  0
   10.8674   -2.4721   -0.5416 C   0  0  0  0  0  0  0  0  0  0  0  0
   10.7974   -3.7635   -0.0404 C   0  0  0  0  0  0  0  0  0  0  0  0
   11.8031   -4.2332    0.7903 C   0  0  0  0  0  0  0  0  0  0  0  0
   12.8759   -3.4004    1.1456 C   0  0  0  0  0  0  0  0  0  0  0  0
   12.8695   -2.0850    0.7008 C   0  0  0  0  0  0  0  0  0  0  0  0
   14.0244   -3.9056    1.9931 C   0  0  1  0  0  0  0  0  0  0  0  0
   13.7945   -3.4603    3.3342 O   0  0  0  0  0  0  0  0  0  0  0  0
   14.8679   -3.7921    4.2158 C   0  0  0  0  0  0  0  0  0  0  0  0
   15.0733   -5.3223    4.2605 C   0  0  0  0  0  0  0  0  0  0  0  0
   15.2307   -5.9110    2.8490 C   0  0  0  0  0  0  0  0  0  0  0  0
   14.1153   -5.4365    1.8937 C   0  0  1  0  0  0  0  0  0  0  0  0
   12.7183   -6.0874    2.1403 C   0  0  2  0  0  0  0  0  0  0  0  0
   12.7673   -7.6067    2.0472 C   0  0  0  0  0  0  0  0  0  0  0  0
   12.3297   -8.3923    3.1162 C   0  0  0  0  0  0  0  0  0  0  0  0
   12.4058   -9.7806    3.0303 C   0  0  0  0  0  0  0  0  0  0  0  0
   12.9252  -10.3773    1.8827 C   0  0  0  0  0  0  0  0  0  0  0  0
   13.3326   -9.5998    0.8058 C   0  0  0  0  0  0  0  0  0  0  0  0
   13.2534   -8.2136    0.8875 C   0  0  0  0  0  0  0  0  0  0  0  0
   11.7244   -5.5627    1.2182 N   0  0  0  0  0  0  0  0  0  0  0  0
   12.9419    1.8039   -0.3195 H   0  0  0  0  0  0  0  0  0  0  0  0
   13.8412    0.3849    0.0936 H   0  0  0  0  0  0  0  0  0  0  0  0
   12.5513    0.8599    1.1381 H   0  0  0  0  0  0  0  0  0  0  0  0
   10.1585    0.2508    0.1995 H   0  0  0  0  0  0  0  0  0  0  0  0
    9.8173   -0.1840   -1.4404 H   0  0  0  0  0  0  0  0  0  0  0  0
   10.2881    1.3288   -1.0813 H   0  0  0  0  0  0  0  0  0  0  0  0
   12.7546    0.7362   -2.5815 H   0  0  0  0  0  0  0  0  0  0  0  0
   11.6835   -0.6584   -2.7076 H   0  0  0  0  0  0  0  0  0  0  0  0
   13.3441   -0.8652   -2.2592 H   0  0  0  0  0  0  0  0  0  0  0  0
   10.0789   -2.1827   -1.2109 H   0  0  0  0  0  0  0  0  0  0  0  0
    9.9625   -4.3964   -0.3281 H   0  0  0  0  0  0  0  0  0  0  0  0
   13.7124   -1.5054    1.0214 H   0  0  0  0  0  0  0  0  0  0  0  0
   14.9481   -3.4636    1.6062 H   0  0  0  0  0  0  0  0  0  0  0  0
   15.7885   -3.3233    3.8717 H   0  0  0  0  0  0  0  0  0  0  0  0
   14.6565   -3.4018    5.2084 H   0  0  0  0  0  0  0  0  0  0  0  0
   15.9488   -5.5615    4.8654 H   0  0  0  0  0  0  0  0  0  0  0  0
   14.2172   -5.7782    4.7576 H   0  0  0  0  0  0  0  0  0  0  0  0
   16.1993   -5.6154    2.4368 H   0  0  0  0  0  0  0  0  0  0  0  0
   15.2605   -6.9979    2.9035 H   0  0  0  0  0  0  0  0  0  0  0  0
   14.4350   -5.6514    0.8706 H   0  0  0  0  0  0  0  0  0  0  0  0
   12.3839   -5.8281    3.1467 H   0  0  0  0  0  0  0  0  0  0  0  0
   11.9266   -7.9256    4.0075 H   0  0  0  0  0  0  0  0  0  0  0  0
   12.0849  -10.3883    3.8589 H   0  0  0  0  0  0  0  0  0  0  0  0
   12.9621  -11.4564    1.8116 H   0  0  0  0  0  0  0  0  0  0  0  0
   13.7105  -10.0654   -0.0977 H   0  0  0  0  0  0  0  0  0  0  0  0
   13.5752   -7.6146    0.0540 H   0  0  0  0  0  0  0  0  0  0  0  0
   10.8173   -5.9953    1.3112 H   0  0  0  0  0  0  0  0  0  0  0  0
  1  2  1  0  0  0  0
  1 25  1  0  0  0  0
  1 26  1  0  0  0  0
  1 27  1  0  0  0  0
  2  3  1  0  0  0  0
  2  4  1  0  0  0  0
  2  5  1  0  0  0  0
  3 28  1  0  0  0  0
  3 29  1  0  0  0  0
  3 30  1  0  0  0  0
  4 31  1  0  0  0  0
  4 32  1  0  0  0  0
  4 33  1  0  0  0  0
  5  6  2  0  0  0  0
  5 10  1  0  0  0  0
  6  7  1  0  0  0  0
  6 34  1  0  0  0  0
  7  8  2  0  0  0  0
  7 35  1  0  0  0  0
  8  9  1  0  0  0  0
  8 24  1  0  0  0  0
  9 10  2  0  0  0  0
  9 11  1  0  0  0  0
 10 36  1  0  0  0  0
 11 12  1  0  0  0  0
 11 16  1  0  0  0  0
 11 37  1  6  0  0  0
 12 13  1  0  0  0  0
 13 14  1  0  0  0  0
 13 38  1  0  0  0  0
 13 39  1  0  0  0  0
 14 15  1  0  0  0  0
 14 40  1  0  0  0  0
 14 41  1  0  0  0  0
 15 16  1  0  0  0  0
 15 42  1  0  0  0  0
 15 43  1  0  0  0  0
 16 17  1  0  0  0  0
 16 44  1  6  0  0  0
 17 18  1  0  0  0  0
 17 24  1  0  0  0  0
 17 45  1  1  0  0  0
 18 19  2  0  0  0  0
 18 23  1  0  0  0  0
 19 20  1  0  0  0  0
 19 46  1  0  0  0  0
 20 21  2  0  0  0  0
 20 47  1  0  0  0  0
 21 22  1  0  0  0  0
 21 48  1  0  0  0  0
 22 23  2  0  0  0  0
 22 49  1  0  0  0  0
 23 50  1  0  0  0  0
 24 51  1  0  0  0  0
M  END
>  <ID>
CHEMBL1089056

>  <IC50[nM]>
120

$$$$
