@<TRIPOS>MOLECULE
CHEMBL1089393
 39 42 0 0 0
SMALL
GASTEIGER
****
Structure written by MMmdl.
@<TRIPOS>ATOM
      1 C          14.8893   -3.7981    4.1945 C.3     1  LIG1        0.0485
      2 C          15.0804   -5.3249    4.2412 C.3     1  LIG1       -0.0290
      3 C          15.2239   -5.9068    2.8287 C.3     1  LIG1       -0.0435
      4 C          14.1049   -5.4146    1.8817 C.3     1  LIG1        0.0120
      5 C          12.7106   -6.0702    2.1171 C.3     1  LIG1        0.0514
      6 C          12.7580   -7.5939    2.0347 C.ar    1  LIG1       -0.0269
      7 C          12.3194   -8.3766    3.1039 C.ar    1  LIG1       -0.0568
      8 C          12.3978   -9.7673    3.0196 C.ar    1  LIG1       -0.0614
      9 C          12.9042  -10.3679    1.8692 C.ar    1  LIG1       -0.0617
     10 C          13.3260   -9.5937    0.7962 C.ar    1  LIG1       -0.0614
     11 C          13.2507   -8.2088    0.8795 C.ar    1  LIG1       -0.0568
     12 N          11.7473   -5.5319    1.1616 N.pl3   1  LIG1       -0.3364
     13 C          11.7944   -4.1869    0.7523 C.ar    1  LIG1        0.0334
     14 C          10.7727   -3.7107   -0.0610 C.ar    1  LIG1       -0.0391
     15 C          10.8032   -2.4026   -0.5353 C.ar    1  LIG1       -0.0416
     16 C          11.8552   -1.5670   -0.1635 C.ar    1  LIG1        0.0414
     17 CL         11.9379    0.0314   -0.7672 Cl      1  LIG1       -0.0835
     18 C          12.8564   -2.0281    0.6785 C.ar    1  LIG1       -0.0360
     19 C          12.8661   -3.3474    1.1339 C.ar    1  LIG1        0.0037
     20 C          14.0119   -3.8725    1.9814 C.3     1  LIG1        0.0901
     21 O          13.8062   -3.4544    3.3298 O.3     1  LIG1       -0.3716
     22 H          15.8089   -3.3291    3.8337 H       1  LIG1        0.0560
     23 H          14.2305   -5.7850    4.7470 H       1  LIG1        0.0287
     24 H          15.9612   -5.5785    4.8331 H       1  LIG1        0.0287
     25 H          15.2499   -6.9950    2.8822 H       1  LIG1        0.0270
     26 H          16.1888   -5.6094    2.4116 H       1  LIG1        0.0270
     27 H          14.4180   -5.6334    0.8605 H       1  LIG1        0.0350
     28 H          12.3624   -5.8151    3.1221 H       1  LIG1        0.0551
     29 H          11.9273   -7.9173    3.9994 H       1  LIG1        0.0621
     30 H          12.0644  -10.3748    3.8484 H       1  LIG1        0.0618
     31 H          12.9482  -11.4459    1.8023 H       1  LIG1        0.0618
     32 H          13.6939  -10.0609   -0.1057 H       1  LIG1        0.0618
     33 H          13.5643   -7.6077    0.0384 H       1  LIG1        0.0621
     34 H          10.9613   -6.1290    0.9493 H       1  LIG1        0.1467
     35 H           9.9479   -4.3538   -0.3413 H       1  LIG1        0.0636
     36 H          10.0267   -2.0394   -1.1925 H       1  LIG1        0.0633
     37 H          13.6764   -1.3643    0.9323 H       1  LIG1        0.0636
     38 H          14.9419   -3.4369    1.6042 H       1  LIG1        0.0650
     39 H          14.7142   -3.3943    5.1913 H       1  LIG1        0.0560
@<TRIPOS>BOND
     1     1     2    1
     2     1    21    1
     3     1    22    1
     4     1    39    1
     5     2     3    1
     6     2    23    1
     7     2    24    1
     8     3     4    1
     9     3    25    1
    10     3    26    1
    11     4     5    1
    12     4    20    1
    13     4    27    1
    14     5     6    1
    15     5    12    1
    16     5    28    1
    17     6     7   ar
    18     6    11   ar
    19     7     8   ar
    20     7    29    1
    21     8     9   ar
    22     8    30    1
    23     9    10   ar
    24     9    31    1
    25    10    11   ar
    26    10    32    1
    27    11    33    1
    28    12    13    1
    29    12    34    1
    30    13    14   ar
    31    13    19   ar
    32    14    15   ar
    33    14    35    1
    34    15    16   ar
    35    15    36    1
    36    16    17    1
    37    16    18   ar
    38    18    19   ar
    39    18    37    1
    40    19    20    1
    41    20    21    1
    42    20    38    1
