CHEMBL1086410
 OpenBabel02152110423D
Structure written by MMmdl.
 60 63  0  0  1  0  0  0  0  0999 V2000
   15.2901   -4.6437    7.5383 C   0  0  0  0  0  0  0  0  0  0  0  0
   14.2345   -3.9601    6.6829 N   0  3  0  0  0  0  0  0  0  0  0  0
   14.7221   -3.0583    5.5490 C   0  0  0  0  0  0  0  0  0  0  0  0
   14.8999   -3.7840    4.1926 C   0  0  1  0  0  0  0  0  0  0  0  0
   15.0700   -5.3255    4.2383 C   0  0  0  0  0  0  0  0  0  0  0  0
   15.2153   -5.9091    2.8263 C   0  0  0  0  0  0  0  0  0  0  0  0
   14.0983   -5.4050    1.8842 C   0  0  1  0  0  0  0  0  0  0  0  0
   12.7057   -6.0670    2.1305 C   0  0  2  0  0  0  0  0  0  0  0  0
   12.7531   -7.5892    2.0317 C   0  0  0  0  0  0  0  0  0  0  0  0
   12.3225   -8.3747    3.1029 C   0  0  0  0  0  0  0  0  0  0  0  0
   12.3958   -9.7629    3.0192 C   0  0  0  0  0  0  0  0  0  0  0  0
   12.8972  -10.3629    1.8676 C   0  0  0  0  0  0  0  0  0  0  0  0
   13.3187   -9.5874    0.7926 C   0  0  0  0  0  0  0  0  0  0  0  0
   13.2445   -8.2014    0.8739 C   0  0  0  0  0  0  0  0  0  0  0  0
   11.6991   -5.5133    1.2256 N   0  0  0  0  0  0  0  0  0  0  0  0
   11.7858   -4.1845    0.7833 C   0  0  0  0  0  0  0  0  0  0  0  0
   10.7712   -3.7187   -0.0475 C   0  0  0  0  0  0  0  0  0  0  0  0
   10.8197   -2.4274   -0.5442 C   0  0  0  0  0  0  0  0  0  0  0  0
   11.8648   -1.5641   -0.1926 C   0  0  0  0  0  0  0  0  0  0  0  0
   11.9169   -0.1315   -0.7463 C   0  0  0  0  0  0  0  0  0  0  0  0
   12.7557   -0.1019   -2.0369 C   0  0  0  0  0  0  0  0  0  0  0  0
   12.5803    0.8318    0.2570 C   0  0  0  0  0  0  0  0  0  0  0  0
   10.4805    0.3432   -1.0380 C   0  0  0  0  0  0  0  0  0  0  0  0
   12.8556   -2.0349    0.6769 C   0  0  0  0  0  0  0  0  0  0  0  0
   12.8619   -3.3505    1.1396 C   0  0  0  0  0  0  0  0  0  0  0  0
   14.0087   -3.8650    1.9951 C   0  0  1  0  0  0  0  0  0  0  0  0
   13.7947   -3.4627    3.3473 O   0  0  0  0  0  0  0  0  0  0  0  0
   14.6735   -5.1814    8.2598 H   0  0  0  0  0  0  0  0  0  0  0  0
   15.8828   -3.8437    7.9841 H   0  0  0  0  0  0  0  0  0  0  0  0
   15.8509   -5.3019    6.8818 H   0  0  0  0  0  0  0  0  0  0  0  0
   13.6389   -4.6718    6.2894 H   0  0  0  0  0  0  0  0  0  0  0  0
   13.9254   -2.3118    5.5211 H   0  0  0  0  0  0  0  0  0  0  0  0
   15.6389   -2.6096    5.9280 H   0  0  0  0  0  0  0  0  0  0  0  0
   15.7954   -3.3483    3.7468 H   0  0  0  0  0  0  0  0  0  0  0  0
   15.9375   -5.6020    4.8343 H   0  0  0  0  0  0  0  0  0  0  0  0
   14.2035   -5.7885    4.7085 H   0  0  0  0  0  0  0  0  0  0  0  0
   16.1861   -5.6234    2.4153 H   0  0  0  0  0  0  0  0  0  0  0  0
   15.2297   -6.9971    2.8750 H   0  0  0  0  0  0  0  0  0  0  0  0
   14.4101   -5.6090    0.8598 H   0  0  0  0  0  0  0  0  0  0  0  0
   12.3692   -5.8348    3.1428 H   0  0  0  0  0  0  0  0  0  0  0  0
   11.9399   -7.9122    4.0011 H   0  0  0  0  0  0  0  0  0  0  0  0
   12.0683  -10.3730    3.8497 H   0  0  0  0  0  0  0  0  0  0  0  0
   12.9497  -11.4400    1.8049 H   0  0  0  0  0  0  0  0  0  0  0  0
   13.6958  -10.0580   -0.1024 H   0  0  0  0  0  0  0  0  0  0  0  0
   13.5651   -7.6033    0.0339 H   0  0  0  0  0  0  0  0  0  0  0  0
   10.7785   -5.9107    1.3696 H   0  0  0  0  0  0  0  0  0  0  0  0
    9.9359   -4.3468   -0.3168 H   0  0  0  0  0  0  0  0  0  0  0  0
   10.0178   -2.1019   -1.1900 H   0  0  0  0  0  0  0  0  0  0  0  0
   12.9019    0.9045   -2.4236 H   0  0  0  0  0  0  0  0  0  0  0  0
   12.2955   -0.6969   -2.8131 H   0  0  0  0  0  0  0  0  0  0  0  0
   13.7493   -0.5034   -1.8678 H   0  0  0  0  0  0  0  0  0  0  0  0
   13.6597    0.7317    0.2362 H   0  0  0  0  0  0  0  0  0  0  0  0
   12.3141    0.5827    1.2765 H   0  0  0  0  0  0  0  0  0  0  0  0
   12.3525    1.8791    0.0573 H   0  0  0  0  0  0  0  0  0  0  0  0
   10.3454    1.4034   -1.0795 H   0  0  0  0  0  0  0  0  0  0  0  0
    9.7702    0.0204   -0.3014 H   0  0  0  0  0  0  0  0  0  0  0  0
   10.1013   -0.0683   -1.9475 H   0  0  0  0  0  0  0  0  0  0  0  0
   13.6541   -1.3803    0.9921 H   0  0  0  0  0  0  0  0  0  0  0  0
   14.9440   -3.4101    1.6563 H   0  0  0  0  0  0  0  0  0  0  0  0
   13.7216   -3.3684    7.3194 H   0  0  0  0  0  0  0  0  0  0  0  0
  1  2  1  0  0  0  0
  1 28  1  0  0  0  0
  1 29  1  0  0  0  0
  1 30  1  0  0  0  0
  2  3  1  0  0  0  0
  2 31  1  0  0  0  0
  2 60  1  0  0  0  0
  3  4  1  0  0  0  0
  3 32  1  0  0  0  0
  3 33  1  0  0  0  0
  4  5  1  0  0  0  0
  4 27  1  0  0  0  0
  4 34  1  6  0  0  0
  5  6  1  0  0  0  0
  5 35  1  0  0  0  0
  5 36  1  0  0  0  0
  6  7  1  0  0  0  0
  6 37  1  0  0  0  0
  6 38  1  0  0  0  0
  7  8  1  0  0  0  0
  7 26  1  0  0  0  0
  7 39  1  6  0  0  0
  8  9  1  0  0  0  0
  8 15  1  0  0  0  0
  8 40  1  1  0  0  0
  9 10  2  0  0  0  0
  9 14  1  0  0  0  0
 10 11  1  0  0  0  0
 10 41  1  0  0  0  0
 11 12  2  0  0  0  0
 11 42  1  0  0  0  0
 12 13  1  0  0  0  0
 12 43  1  0  0  0  0
 13 14  2  0  0  0  0
 13 44  1  0  0  0  0
 14 45  1  0  0  0  0
 15 16  1  0  0  0  0
 15 46  1  0  0  0  0
 16 17  2  0  0  0  0
 16 25  1  0  0  0  0
 17 18  1  0  0  0  0
 17 47  1  0  0  0  0
 18 19  2  0  0  0  0
 18 48  1  0  0  0  0
 19 20  1  0  0  0  0
 19 24  1  0  0  0  0
 20 21  1  0  0  0  0
 20 22  1  0  0  0  0
 20 23  1  0  0  0  0
 21 49  1  0  0  0  0
 21 50  1  0  0  0  0
 21 51  1  0  0  0  0
 22 52  1  0  0  0  0
 22 53  1  0  0  0  0
 22 54  1  0  0  0  0
 23 55  1  0  0  0  0
 23 56  1  0  0  0  0
 23 57  1  0  0  0  0
 24 25  2  0  0  0  0
 24 58  1  0  0  0  0
 25 26  1  0  0  0  0
 26 27  1  0  0  0  0
 26 59  1  6  0  0  0
M  CHG  1   2   1
M  END
>  <ID>
CHEMBL1086410

>  <IC50[nM]>
4

$$$$
