CHEMBL1086409
 OpenBabel02152110423D
Structure written by MMmdl.
 51 54  0  0  1  0  0  0  0  0999 V2000
   15.2852   -4.6386    7.5377 C   0  0  0  0  0  0  0  0  0  0  0  0
   14.2140   -3.9638    6.6838 N   0  3  0  0  0  0  0  0  0  0  0  0
   14.7229   -3.0568    5.5568 C   0  0  0  0  0  0  0  0  0  0  0  0
   14.9031   -3.7791    4.1930 C   0  0  1  0  0  0  0  0  0  0  0  0
   15.0673   -5.3233    4.2376 C   0  0  0  0  0  0  0  0  0  0  0  0
   15.2106   -5.9104    2.8268 C   0  0  0  0  0  0  0  0  0  0  0  0
   14.0964   -5.4064    1.8821 C   0  0  1  0  0  0  0  0  0  0  0  0
   12.7040   -6.0577    2.1299 C   0  0  2  0  0  0  0  0  0  0  0  0
   12.7501   -7.5747    2.0307 C   0  0  0  0  0  0  0  0  0  0  0  0
   13.2481   -8.1929    0.8744 C   0  0  0  0  0  0  0  0  0  0  0  0
   13.3274   -9.5772    0.8022 C   0  0  0  0  0  0  0  0  0  0  0  0
   12.9065  -10.3273    1.8986 C   0  0  0  0  0  0  0  0  0  0  0  0
   12.9781  -11.6576    1.9122 F   0  0  0  0  0  0  0  0  0  0  0  0
   12.4005   -9.7294    3.0355 C   0  0  0  0  0  0  0  0  0  0  0  0
   12.3196   -8.3522    3.1084 C   0  0  0  0  0  0  0  0  0  0  0  0
   11.6986   -5.5069    1.2248 N   0  0  0  0  0  0  0  0  0  0  0  0
   11.7870   -4.1773    0.7812 C   0  0  0  0  0  0  0  0  0  0  0  0
   10.7766   -3.7112   -0.0571 C   0  0  0  0  0  0  0  0  0  0  0  0
   10.8176   -2.4109   -0.5470 C   0  0  0  0  0  0  0  0  0  0  0  0
   11.8604   -1.5556   -0.1863 C   0  0  0  0  0  0  0  0  0  0  0  0
   11.9094   -0.1390   -0.7460 C   0  0  0  0  0  0  0  0  0  0  0  0
   12.5320   -0.1612   -1.9254 F   0  0  0  0  0  0  0  0  0  0  0  0
   10.6767    0.3334   -0.9239 F   0  0  0  0  0  0  0  0  0  0  0  0
   12.5676    0.6891    0.0651 F   0  0  0  0  0  0  0  0  0  0  0  0
   12.8548   -2.0208    0.6812 C   0  0  0  0  0  0  0  0  0  0  0  0
   12.8610   -3.3416    1.1411 C   0  0  0  0  0  0  0  0  0  0  0  0
   14.0088   -3.8657    1.9891 C   0  0  1  0  0  0  0  0  0  0  0  0
   13.7932   -3.4672    3.3434 O   0  0  0  0  0  0  0  0  0  0  0  0
   14.6948   -5.2041    8.2632 H   0  0  0  0  0  0  0  0  0  0  0  0
   15.8829   -3.8490    8.0065 H   0  0  0  0  0  0  0  0  0  0  0  0
   15.8800   -5.2958    6.9019 H   0  0  0  0  0  0  0  0  0  0  0  0
   13.6178   -4.6706    6.2820 H   0  0  0  0  0  0  0  0  0  0  0  0
   13.9311   -2.3052    5.5033 H   0  0  0  0  0  0  0  0  0  0  0  0
   15.6440   -2.5855    5.9141 H   0  0  0  0  0  0  0  0  0  0  0  0
   15.8092   -3.3451    3.7550 H   0  0  0  0  0  0  0  0  0  0  0  0
   15.9506   -5.6016    4.8084 H   0  0  0  0  0  0  0  0  0  0  0  0
   14.2088   -5.7825    4.7320 H   0  0  0  0  0  0  0  0  0  0  0  0
   16.1820   -5.6237    2.4174 H   0  0  0  0  0  0  0  0  0  0  0  0
   15.2320   -6.9982    2.8820 H   0  0  0  0  0  0  0  0  0  0  0  0
   14.4096   -5.6240    0.8610 H   0  0  0  0  0  0  0  0  0  0  0  0
   12.3673   -5.8233    3.1411 H   0  0  0  0  0  0  0  0  0  0  0  0
   13.5784   -7.5954    0.0345 H   0  0  0  0  0  0  0  0  0  0  0  0
   13.7093  -10.0600   -0.0884 H   0  0  0  0  0  0  0  0  0  0  0  0
   12.0946  -10.3597    3.8597 H   0  0  0  0  0  0  0  0  0  0  0  0
   11.9422   -7.8995    4.0140 H   0  0  0  0  0  0  0  0  0  0  0  0
   10.7765   -5.8854    1.4070 H   0  0  0  0  0  0  0  0  0  0  0  0
    9.9543   -4.3549   -0.3328 H   0  0  0  0  0  0  0  0  0  0  0  0
   10.0329   -2.0650   -1.2044 H   0  0  0  0  0  0  0  0  0  0  0  0
   13.6650   -1.3653    0.9686 H   0  0  0  0  0  0  0  0  0  0  0  0
   14.9422   -3.4219    1.6325 H   0  0  0  0  0  0  0  0  0  0  0  0
   13.6785   -3.3900    7.3163 H   0  0  0  0  0  0  0  0  0  0  0  0
  1  2  1  0  0  0  0
  1 29  1  0  0  0  0
  1 30  1  0  0  0  0
  1 31  1  0  0  0  0
  2  3  1  0  0  0  0
  2 32  1  0  0  0  0
  2 51  1  0  0  0  0
  3  4  1  0  0  0  0
  3 33  1  0  0  0  0
  3 34  1  0  0  0  0
  4  5  1  0  0  0  0
  4 28  1  0  0  0  0
  4 35  1  6  0  0  0
  5  6  1  0  0  0  0
  5 36  1  0  0  0  0
  5 37  1  0  0  0  0
  6  7  1  0  0  0  0
  6 38  1  0  0  0  0
  6 39  1  0  0  0  0
  7  8  1  0  0  0  0
  7 27  1  0  0  0  0
  7 40  1  6  0  0  0
  8  9  1  0  0  0  0
  8 16  1  0  0  0  0
  8 41  1  1  0  0  0
  9 10  2  0  0  0  0
  9 15  1  0  0  0  0
 10 11  1  0  0  0  0
 10 42  1  0  0  0  0
 11 12  2  0  0  0  0
 11 43  1  0  0  0  0
 12 13  1  0  0  0  0
 12 14  1  0  0  0  0
 14 15  2  0  0  0  0
 14 44  1  0  0  0  0
 15 45  1  0  0  0  0
 16 17  1  0  0  0  0
 16 46  1  0  0  0  0
 17 18  2  0  0  0  0
 17 26  1  0  0  0  0
 18 19  1  0  0  0  0
 18 47  1  0  0  0  0
 19 20  2  0  0  0  0
 19 48  1  0  0  0  0
 20 21  1  0  0  0  0
 20 25  1  0  0  0  0
 21 22  1  0  0  0  0
 21 23  1  0  0  0  0
 21 24  1  0  0  0  0
 25 26  2  0  0  0  0
 25 49  1  0  0  0  0
 26 27  1  0  0  0  0
 27 28  1  0  0  0  0
 27 50  1  6  0  0  0
M  CHG  1   2   1
M  END
>  <ID>
CHEMBL1086409

>  <IC50[nM]>
58

$$$$
