CHEMBL1084677
 OpenBabel02152110423D
Structure written by MMmdl.
 62 65  0  0  1  0  0  0  0  0999 V2000
   16.1912   -7.7412   11.8466 C   0  0  0  0  0  0  0  0  0  0  0  0
   15.1910   -6.9123   11.0170 N   0  3  0  0  0  0  0  0  0  0  0  0
   15.9171   -5.9921   10.0050 C   0  0  0  0  0  0  0  0  0  0  0  0
   14.8572   -5.3740    9.0989 C   0  0  0  0  0  0  0  0  0  0  0  0
   15.6866   -4.1881    7.8512 S   0  0  0  0  0  0  0  0  0  0  0  0
   15.9605   -2.8994    8.4965 O   0  0  0  0  0  0  0  0  0  0  0  0
   16.7692   -4.9053    7.1723 O   0  0  0  0  0  0  0  0  0  0  0  0
   14.3931   -3.9357    6.7113 N   0  0  0  0  0  0  0  0  0  0  0  0
   14.7292   -3.0772    5.5493 C   0  0  0  0  0  0  0  0  0  0  0  0
   14.9090   -3.7899    4.1939 C   0  0  1  0  0  0  0  0  0  0  0  0
   15.0802   -5.3264    4.2516 C   0  0  0  0  0  0  0  0  0  0  0  0
   15.2184   -5.9103    2.8356 C   0  0  0  0  0  0  0  0  0  0  0  0
   14.1038   -5.4145    1.8827 C   0  0  1  0  0  0  0  0  0  0  0  0
   12.7108   -6.0690    2.1214 C   0  0  2  0  0  0  0  0  0  0  0  0
   12.7593   -7.5926    2.0373 C   0  0  0  0  0  0  0  0  0  0  0  0
   12.3256   -8.3763    3.1078 C   0  0  0  0  0  0  0  0  0  0  0  0
   12.4034   -9.7655    3.0228 C   0  0  0  0  0  0  0  0  0  0  0  0
   12.9076  -10.3673    1.8725 C   0  0  0  0  0  0  0  0  0  0  0  0
   13.3297   -9.5928    0.7978 C   0  0  0  0  0  0  0  0  0  0  0  0
   13.2528   -8.2067    0.8813 C   0  0  0  0  0  0  0  0  0  0  0  0
   11.7374   -5.5233    1.1763 N   0  0  0  0  0  0  0  0  0  0  0  0
   11.7936   -4.1831    0.7614 C   0  0  0  0  0  0  0  0  0  0  0  0
   10.7743   -3.7096   -0.0570 C   0  0  0  0  0  0  0  0  0  0  0  0
   10.8089   -2.4050   -0.5396 C   0  0  0  0  0  0  0  0  0  0  0  0
   11.8578   -1.5536   -0.1865 C   0  0  0  0  0  0  0  0  0  0  0  0
   11.9038   -0.1354   -0.7457 C   0  0  0  0  0  0  0  0  0  0  0  0
   10.6704    0.3354   -0.9312 F   0  0  0  0  0  0  0  0  0  0  0  0
   12.5538    0.6943    0.0706 F   0  0  0  0  0  0  0  0  0  0  0  0
   12.5323   -0.1555   -1.9215 F   0  0  0  0  0  0  0  0  0  0  0  0
   12.8594   -2.0221    0.6688 C   0  0  0  0  0  0  0  0  0  0  0  0
   12.8662   -3.3440    1.1312 C   0  0  0  0  0  0  0  0  0  0  0  0
   14.0156   -3.8719    1.9779 C   0  0  1  0  0  0  0  0  0  0  0  0
   13.8095   -3.4697    3.3345 O   0  0  0  0  0  0  0  0  0  0  0  0
   15.6079   -8.3192   12.5593 H   0  0  0  0  0  0  0  0  0  0  0  0
   16.8422   -7.0180   12.3360 H   0  0  0  0  0  0  0  0  0  0  0  0
   16.7252   -8.3672   11.1323 H   0  0  0  0  0  0  0  0  0  0  0  0
   14.5471   -7.5260   10.5314 H   0  0  0  0  0  0  0  0  0  0  0  0
   16.4848   -5.2614   10.5795 H   0  0  0  0  0  0  0  0  0  0  0  0
   16.6028   -6.6401    9.4590 H   0  0  0  0  0  0  0  0  0  0  0  0
   14.3005   -6.1177    8.5318 H   0  0  0  0  0  0  0  0  0  0  0  0
   14.1328   -4.8034    9.6822 H   0  0  0  0  0  0  0  0  0  0  0  0
   13.9458   -4.8155    6.4388 H   0  0  0  0  0  0  0  0  0  0  0  0
   13.9602   -2.3095    5.4481 H   0  0  0  0  0  0  0  0  0  0  0  0
   15.6378   -2.5432    5.8251 H   0  0  0  0  0  0  0  0  0  0  0  0
   15.8078   -3.3352    3.7720 H   0  0  0  0  0  0  0  0  0  0  0  0
   15.9578   -5.5895    4.8417 H   0  0  0  0  0  0  0  0  0  0  0  0
   14.2267   -5.7829    4.7558 H   0  0  0  0  0  0  0  0  0  0  0  0
   16.1860   -5.6147    2.4228 H   0  0  0  0  0  0  0  0  0  0  0  0
   15.2464   -6.9974    2.8926 H   0  0  0  0  0  0  0  0  0  0  0  0
   14.4218   -5.6358    0.8626 H   0  0  0  0  0  0  0  0  0  0  0  0
   12.3662   -5.8168    3.1277 H   0  0  0  0  0  0  0  0  0  0  0  0
   11.9339   -7.9169    4.0042 H   0  0  0  0  0  0  0  0  0  0  0  0
   12.0706  -10.3738    3.8521 H   0  0  0  0  0  0  0  0  0  0  0  0
   12.9509  -11.4449    1.8045 H   0  0  0  0  0  0  0  0  0  0  0  0
   13.6962  -10.0604   -0.1030 H   0  0  0  0  0  0  0  0  0  0  0  0
   13.5656   -7.6086    0.0393 H   0  0  0  0  0  0  0  0  0  0  0  0
   10.8964   -6.0776    1.0669 H   0  0  0  0  0  0  0  0  0  0  0  0
    9.9514   -4.3520   -0.3355 H   0  0  0  0  0  0  0  0  0  0  0  0
   10.0217   -2.0639   -1.1957 H   0  0  0  0  0  0  0  0  0  0  0  0
   13.6843   -1.3740    0.9344 H   0  0  0  0  0  0  0  0  0  0  0  0
   14.9446   -3.4365    1.6004 H   0  0  0  0  0  0  0  0  0  0  0  0
   14.6360   -6.3283   11.6396 H   0  0  0  0  0  0  0  0  0  0  0  0
  1  2  1  0  0  0  0
  1 34  1  0  0  0  0
  1 35  1  0  0  0  0
  1 36  1  0  0  0  0
  2  3  1  0  0  0  0
  2 37  1  0  0  0  0
  2 62  1  0  0  0  0
  3  4  1  0  0  0  0
  3 38  1  0  0  0  0
  3 39  1  0  0  0  0
  4  5  1  0  0  0  0
  4 40  1  0  0  0  0
  4 41  1  0  0  0  0
  5  6  2  0  0  0  0
  5  7  2  0  0  0  0
  5  8  1  0  0  0  0
  8  9  1  0  0  0  0
  8 42  1  0  0  0  0
  9 10  1  0  0  0  0
  9 43  1  0  0  0  0
  9 44  1  0  0  0  0
 10 11  1  0  0  0  0
 10 33  1  0  0  0  0
 10 45  1  6  0  0  0
 11 12  1  0  0  0  0
 11 46  1  0  0  0  0
 11 47  1  0  0  0  0
 12 13  1  0  0  0  0
 12 48  1  0  0  0  0
 12 49  1  0  0  0  0
 13 14  1  0  0  0  0
 13 32  1  0  0  0  0
 13 50  1  6  0  0  0
 14 15  1  0  0  0  0
 14 21  1  0  0  0  0
 14 51  1  1  0  0  0
 15 16  2  0  0  0  0
 15 20  1  0  0  0  0
 16 17  1  0  0  0  0
 16 52  1  0  0  0  0
 17 18  2  0  0  0  0
 17 53  1  0  0  0  0
 18 19  1  0  0  0  0
 18 54  1  0  0  0  0
 19 20  2  0  0  0  0
 19 55  1  0  0  0  0
 20 56  1  0  0  0  0
 21 22  1  0  0  0  0
 21 57  1  0  0  0  0
 22 23  2  0  0  0  0
 22 31  1  0  0  0  0
 23 24  1  0  0  0  0
 23 58  1  0  0  0  0
 24 25  2  0  0  0  0
 24 59  1  0  0  0  0
 25 26  1  0  0  0  0
 25 30  1  0  0  0  0
 26 27  1  0  0  0  0
 26 28  1  0  0  0  0
 26 29  1  0  0  0  0
 30 31  2  0  0  0  0
 30 60  1  0  0  0  0
 31 32  1  0  0  0  0
 32 33  1  0  0  0  0
 32 61  1  6  0  0  0
M  CHG  1   2   1
M  END
>  <ID>
CHEMBL1084677

>  <IC50[nM]>
4

$$$$
