@<TRIPOS>MOLECULE
CHEMBL1083517
 52 55 0 0 0
SMALL
GASTEIGER
****
Structure written by MMmdl.
@<TRIPOS>ATOM
      1 C          15.2945   -4.6456    7.5469 C.3     1  LIG1       -0.0448
      2 N          14.2188   -3.9772    6.6830 N.4     1  LIG1        0.2266
      3 C          14.7170   -3.0548    5.5563 C.3     1  LIG1       -0.0070
      4 C          14.9062   -3.7815    4.1963 C.3     1  LIG1        0.0990
      5 C          15.0762   -5.3257    4.2405 C.3     1  LIG1       -0.0212
      6 C          15.2119   -5.9103    2.8279 C.3     1  LIG1       -0.0430
      7 C          14.0958   -5.4085    1.8831 C.3     1  LIG1        0.0121
      8 C          12.7022   -6.0556    2.1309 C.3     1  LIG1        0.0514
      9 C          12.7494   -7.5720    2.0320 C.ar    1  LIG1       -0.0267
     10 C          12.3122   -8.3407    3.1105 C.ar    1  LIG1       -0.0534
     11 C          12.3858   -9.7169    3.0355 C.ar    1  LIG1       -0.0199
     12 C          12.8953  -10.3167    1.9053 C.ar    1  LIG1        0.1169
     13 O          12.9346  -11.6580    1.9834 O.3     1  LIG1       -0.5068
     14 C          13.3254   -9.5761    0.8020 C.ar    1  LIG1       -0.0199
     15 C          13.2462   -8.1884    0.8749 C.ar    1  LIG1       -0.0534
     16 N          11.6994   -5.5075    1.2212 N.pl3   1  LIG1       -0.3364
     17 C          11.7844   -4.1764    0.7815 C.ar    1  LIG1        0.0333
     18 C          10.7699   -3.7067   -0.0503 C.ar    1  LIG1       -0.0400
     19 C          10.8150   -2.4088   -0.5447 C.ar    1  LIG1       -0.0484
     20 C          11.8616   -1.5558   -0.1890 C.ar    1  LIG1        0.0553
     21 C          11.9106   -0.1398   -0.7467 C.3     1  LIG1        0.4174
     22 F          10.6754    0.3322   -0.9250 F       1  LIG1       -0.1659
     23 F          12.5663    0.6893    0.0656 F       1  LIG1       -0.1659
     24 F          12.5325   -0.1603   -1.9255 F       1  LIG1       -0.1659
     25 C          12.8587   -2.0233    0.6738 C.ar    1  LIG1       -0.0427
     26 C          12.8627   -3.3435    1.1365 C.ar    1  LIG1        0.0028
     27 C          14.0125   -3.8687    1.9839 C.3     1  LIG1        0.0907
     28 O          13.8063   -3.4625    3.3381 O.3     1  LIG1       -0.3631
     29 H          14.7131   -5.3408    8.1571 H       1  LIG1        0.0777
     30 H          15.7717   -3.8634    8.1459 H       1  LIG1        0.0777
     31 H          15.9993   -5.1648    6.8954 H       1  LIG1        0.0777
     32 H          13.6481   -4.6984    6.2609 H       1  LIG1        0.2012
     33 H          13.9150   -2.3146    5.4984 H       1  LIG1        0.0839
     34 H          15.6272   -2.5637    5.9148 H       1  LIG1        0.0839
     35 H          15.8145   -3.3482    3.7701 H       1  LIG1        0.0650
     36 H          15.9685   -5.5977    4.8005 H       1  LIG1        0.0292
     37 H          14.2301   -5.7976    4.7439 H       1  LIG1        0.0292
     38 H          16.1813   -5.6195    2.4167 H       1  LIG1        0.0270
     39 H          15.2366   -6.9982    2.8824 H       1  LIG1        0.0270
     40 H          14.4092   -5.6329    0.8632 H       1  LIG1        0.0350
     41 H          12.3643   -5.8188    3.1418 H       1  LIG1        0.0551
     42 H          11.9255   -7.8983    4.0140 H       1  LIG1        0.0622
     43 H          12.0629  -10.3482    3.8517 H       1  LIG1        0.0654
     44 H          13.1991  -12.1433    1.1685 H       1  LIG1        0.2921
     45 H          13.7047  -10.0489   -0.0940 H       1  LIG1        0.0654
     46 H          13.5679   -7.5941    0.0318 H       1  LIG1        0.0622
     47 H          10.7811   -5.9070    1.3745 H       1  LIG1        0.1467
     48 H           9.9416   -4.3450   -0.3209 H       1  LIG1        0.0636
     49 H          10.0299   -2.0650   -1.2027 H       1  LIG1        0.0624
     50 H          13.6742   -1.3708    0.9526 H       1  LIG1        0.0627
     51 H          14.9439   -3.4301    1.6181 H       1  LIG1        0.0650
     52 H          13.6443   -3.4278    7.3100 H       1  LIG1        0.2012
@<TRIPOS>BOND
     1     1     2    1
     2     1    29    1
     3     1    30    1
     4     1    31    1
     5     2     3    1
     6     2    32    1
     7     2    52    1
     8     3     4    1
     9     3    33    1
    10     3    34    1
    11     4     5    1
    12     4    28    1
    13     4    35    1
    14     5     6    1
    15     5    36    1
    16     5    37    1
    17     6     7    1
    18     6    38    1
    19     6    39    1
    20     7     8    1
    21     7    27    1
    22     7    40    1
    23     8     9    1
    24     8    16    1
    25     8    41    1
    26     9    10   ar
    27     9    15   ar
    28    10    11   ar
    29    10    42    1
    30    11    12   ar
    31    11    43    1
    32    12    13    1
    33    12    14   ar
    34    13    44    1
    35    14    15   ar
    36    14    45    1
    37    15    46    1
    38    16    17    1
    39    16    47    1
    40    17    18   ar
    41    17    26   ar
    42    18    19   ar
    43    18    48    1
    44    19    20   ar
    45    19    49    1
    46    20    21    1
    47    20    25   ar
    48    21    22    1
    49    21    23    1
    50    21    24    1
    51    25    26   ar
    52    25    50    1
    53    26    27    1
    54    27    28    1
    55    27    51    1
