CHEMBL1083836
 OpenBabel02152110423D
Structure written by MMmdl.
 55 59  0  0  1  0  0  0  0  0999 V2000
   15.2821   -4.6350    7.5364 C   0  0  0  0  0  0  0  0  0  0  0  0
   14.1932   -3.9714    6.6802 N   0  3  0  0  0  0  0  0  0  0  0  0
   14.7173   -3.0545    5.5540 C   0  0  0  0  0  0  0  0  0  0  0  0
   14.9175   -3.7786    4.1872 C   0  0  1  0  0  0  0  0  0  0  0  0
   15.0874   -5.3228    4.2360 C   0  0  0  0  0  0  0  0  0  0  0  0
   15.2206   -5.9197    2.8310 C   0  0  0  0  0  0  0  0  0  0  0  0
   14.1088   -5.4312    1.8792 C   0  0  1  0  0  0  0  0  0  0  0  0
   12.7176   -6.0847    2.1226 C   0  0  2  0  0  0  0  0  0  0  0  0
   12.7637   -7.6040    2.0348 C   0  0  0  0  0  0  0  0  0  0  0  0
   13.2571   -8.2154    0.8775 C   0  0  0  0  0  0  0  0  0  0  0  0
   13.3310   -9.5999    0.7947 C   0  0  0  0  0  0  0  0  0  0  0  0
   12.9090  -10.3740    1.8712 C   0  0  0  0  0  0  0  0  0  0  0  0
   12.4010   -9.7717    3.0201 C   0  0  0  0  0  0  0  0  0  0  0  0
   12.3216   -8.3846    3.1028 C   0  0  0  0  0  0  0  0  0  0  0  0
   11.7445   -5.5529    1.1675 N   0  0  0  0  0  0  0  0  0  0  0  0
   11.7783   -4.2163    0.7637 C   0  0  0  0  0  0  0  0  0  0  0  0
   10.7564   -3.7313   -0.0600 C   0  0  0  0  0  0  0  0  0  0  0  0
   10.7840   -2.4218   -0.5217 C   0  0  0  0  0  0  0  0  0  0  0  0
   11.8218   -1.5818   -0.1229 C   0  0  0  0  0  0  0  0  0  0  0  0
   11.8894   -0.1791   -0.6884 C   0  0  0  0  0  0  0  0  0  0  0  0
   12.9842    0.7528   -0.3261 C   0  0  0  0  0  0  0  0  0  0  0  0
   12.9393    0.1563   -1.7215 C   0  0  0  0  0  0  0  0  0  0  0  0
   12.8260   -2.0751    0.7222 C   0  0  0  0  0  0  0  0  0  0  0  0
   12.8412   -3.3893    1.1509 C   0  0  0  0  0  0  0  0  0  0  0  0
   14.0126   -3.8975    1.9757 C   0  0  1  0  0  0  0  0  0  0  0  0
   13.8215   -3.4695    3.3243 O   0  0  0  0  0  0  0  0  0  0  0  0
   14.7432   -5.2224    8.2879 H   0  0  0  0  0  0  0  0  0  0  0  0
   15.8954   -3.8612    8.0164 H   0  0  0  0  0  0  0  0  0  0  0  0
   15.9091   -5.2980    6.9311 H   0  0  0  0  0  0  0  0  0  0  0  0
   13.6118   -3.4115    7.2986 H   0  0  0  0  0  0  0  0  0  0  0  0
   15.6259   -2.5534    5.9128 H   0  0  0  0  0  0  0  0  0  0  0  0
   13.9360   -2.2914    5.4675 H   0  0  0  0  0  0  0  0  0  0  0  0
   15.8232   -3.3411    3.7607 H   0  0  0  0  0  0  0  0  0  0  0  0
   14.2483   -5.7949    4.7546 H   0  0  0  0  0  0  0  0  0  0  0  0
   15.9900   -5.5952    4.7784 H   0  0  0  0  0  0  0  0  0  0  0  0
   16.1879   -5.6256    2.4157 H   0  0  0  0  0  0  0  0  0  0  0  0
   15.2426   -7.0073    2.8962 H   0  0  0  0  0  0  0  0  0  0  0  0
   14.4245   -5.6435    0.8559 H   0  0  0  0  0  0  0  0  0  0  0  0
   12.3752   -5.8170    3.1268 H   0  0  0  0  0  0  0  0  0  0  0  0
   13.5704   -7.6127    0.0382 H   0  0  0  0  0  0  0  0  0  0  0  0
   13.6962  -10.0654   -0.1078 H   0  0  0  0  0  0  0  0  0  0  0  0
   12.9524  -11.4515    1.8058 H   0  0  0  0  0  0  0  0  0  0  0  0
   12.0676  -10.3758    3.8514 H   0  0  0  0  0  0  0  0  0  0  0  0
   11.9274   -7.9213    3.9964 H   0  0  0  0  0  0  0  0  0  0  0  0
   11.1139   -6.2188    0.7581 H   0  0  0  0  0  0  0  0  0  0  0  0
    9.9362   -4.3709   -0.3457 H   0  0  0  0  0  0  0  0  0  0  0  0
   10.0223   -2.0493   -1.1963 H   0  0  0  0  0  0  0  0  0  0  0  0
   10.9154    0.2829   -0.8331 H   0  0  0  0  0  0  0  0  0  0  0  0
   12.8587    1.8276   -0.1827 H   0  0  0  0  0  0  0  0  0  0  0  0
   13.7896    0.3985    0.3059 H   0  0  0  0  0  0  0  0  0  0  0  0
   13.6590   -0.6004   -2.0043 H   0  0  0  0  0  0  0  0  0  0  0  0
   12.8015    0.8402   -2.5636 H   0  0  0  0  0  0  0  0  0  0  0  0
   13.6855   -1.4988    1.0279 H   0  0  0  0  0  0  0  0  0  0  0  0
   14.9341   -3.4492    1.5902 H   0  0  0  0  0  0  0  0  0  0  0  0
   13.5724   -4.6652    6.2709 H   0  0  0  0  0  0  0  0  0  0  0  0
  1  2  1  0  0  0  0
  1 27  1  0  0  0  0
  1 28  1  0  0  0  0
  1 29  1  0  0  0  0
  2  3  1  0  0  0  0
  2 30  1  0  0  0  0
  2 55  1  0  0  0  0
  3  4  1  0  0  0  0
  3 31  1  0  0  0  0
  3 32  1  0  0  0  0
  4  5  1  0  0  0  0
  4 26  1  0  0  0  0
  4 33  1  6  0  0  0
  5  6  1  0  0  0  0
  5 34  1  0  0  0  0
  5 35  1  0  0  0  0
  6  7  1  0  0  0  0
  6 36  1  0  0  0  0
  6 37  1  0  0  0  0
  7  8  1  0  0  0  0
  7 25  1  0  0  0  0
  7 38  1  6  0  0  0
  8  9  1  0  0  0  0
  8 15  1  0  0  0  0
  8 39  1  1  0  0  0
  9 10  2  0  0  0  0
  9 14  1  0  0  0  0
 10 11  1  0  0  0  0
 10 40  1  0  0  0  0
 11 12  2  0  0  0  0
 11 41  1  0  0  0  0
 12 13  1  0  0  0  0
 12 42  1  0  0  0  0
 13 14  2  0  0  0  0
 13 43  1  0  0  0  0
 14 44  1  0  0  0  0
 15 16  1  0  0  0  0
 15 45  1  0  0  0  0
 16 17  2  0  0  0  0
 16 24  1  0  0  0  0
 17 18  1  0  0  0  0
 17 46  1  0  0  0  0
 18 19  2  0  0  0  0
 18 47  1  0  0  0  0
 19 20  1  0  0  0  0
 19 23  1  0  0  0  0
 20 21  1  0  0  0  0
 20 22  1  0  0  0  0
 20 48  1  0  0  0  0
 21 22  1  0  0  0  0
 21 49  1  0  0  0  0
 21 50  1  0  0  0  0
 22 51  1  0  0  0  0
 22 52  1  0  0  0  0
 23 24  2  0  0  0  0
 23 53  1  0  0  0  0
 24 25  1  0  0  0  0
 25 26  1  0  0  0  0
 25 54  1  6  0  0  0
M  CHG  1   2   1
M  END
>  <ID>
CHEMBL1083836

>  <IC50[nM]>
11

$$$$
