CHEMBL1085666
 OpenBabel02152110423D
Structure written by MMmdl.
 48 51  0  0  1  0  0  0  0  0999 V2000
   14.3165   -4.0041    6.7057 N   0  3  0  0  0  0  0  0  0  0  0  0
   14.6800   -3.0520    5.5568 C   0  0  0  0  0  0  0  0  0  0  0  0
   14.9014   -3.7767    4.2034 C   0  0  1  0  0  0  0  0  0  0  0  0
   15.0794   -5.3204    4.2560 C   0  0  0  0  0  0  0  0  0  0  0  0
   15.2134   -5.9116    2.8388 C   0  0  0  0  0  0  0  0  0  0  0  0
   14.1000   -5.4138    1.8842 C   0  0  1  0  0  0  0  0  0  0  0  0
   12.7075   -6.0661    2.1333 C   0  0  2  0  0  0  0  0  0  0  0  0
   12.7523   -7.5906    2.0360 C   0  0  0  0  0  0  0  0  0  0  0  0
   12.3188   -8.3771    3.1048 C   0  0  0  0  0  0  0  0  0  0  0  0
   12.4038   -9.7653    3.0219 C   0  0  0  0  0  0  0  0  0  0  0  0
   12.9145  -10.3670    1.8742 C   0  0  0  0  0  0  0  0  0  0  0  0
   13.3307   -9.5915    0.7997 C   0  0  0  0  0  0  0  0  0  0  0  0
   13.2510   -8.2048    0.8812 C   0  0  0  0  0  0  0  0  0  0  0  0
   11.7043   -5.5100    1.2252 N   0  0  0  0  0  0  0  0  0  0  0  0
   11.7866   -4.1781    0.7837 C   0  0  0  0  0  0  0  0  0  0  0  0
   10.7799   -3.7112   -0.0569 C   0  0  0  0  0  0  0  0  0  0  0  0
   10.8200   -2.4096   -0.5450 C   0  0  0  0  0  0  0  0  0  0  0  0
   11.8586   -1.5528   -0.1813 C   0  0  0  0  0  0  0  0  0  0  0  0
   11.9069   -0.1362   -0.7423 C   0  0  0  0  0  0  0  0  0  0  0  0
   12.5326   -0.1571   -1.9193 F   0  0  0  0  0  0  0  0  0  0  0  0
   10.6732    0.3298   -0.9284 F   0  0  0  0  0  0  0  0  0  0  0  0
   12.5588    0.6950    0.0707 F   0  0  0  0  0  0  0  0  0  0  0  0
   12.8553   -2.0181    0.6851 C   0  0  0  0  0  0  0  0  0  0  0  0
   12.8601   -3.3413    1.1433 C   0  0  0  0  0  0  0  0  0  0  0  0
   14.0134   -3.8725    1.9818 C   0  0  1  0  0  0  0  0  0  0  0  0
   13.8054   -3.4743    3.3377 O   0  0  0  0  0  0  0  0  0  0  0  0
   14.1083   -3.4755    7.5374 H   0  0  0  0  0  0  0  0  0  0  0  0
   15.0831   -4.6260    6.9124 H   0  0  0  0  0  0  0  0  0  0  0  0
   13.8569   -2.3375    5.5186 H   0  0  0  0  0  0  0  0  0  0  0  0
   15.5810   -2.5393    5.9003 H   0  0  0  0  0  0  0  0  0  0  0  0
   15.8116   -3.3319    3.7907 H   0  0  0  0  0  0  0  0  0  0  0  0
   15.9615   -5.5868    4.8374 H   0  0  0  0  0  0  0  0  0  0  0  0
   14.2305   -5.7943    4.7513 H   0  0  0  0  0  0  0  0  0  0  0  0
   16.1803   -5.6225    2.4218 H   0  0  0  0  0  0  0  0  0  0  0  0
   15.2376   -7.0003    2.8944 H   0  0  0  0  0  0  0  0  0  0  0  0
   14.4183   -5.6311    0.8642 H   0  0  0  0  0  0  0  0  0  0  0  0
   12.3776   -5.8170    3.1448 H   0  0  0  0  0  0  0  0  0  0  0  0
   11.9279   -7.9184    4.0017 H   0  0  0  0  0  0  0  0  0  0  0  0
   12.0698  -10.3730    3.8508 H   0  0  0  0  0  0  0  0  0  0  0  0
   12.9571  -11.4450    1.8081 H   0  0  0  0  0  0  0  0  0  0  0  0
   13.7008  -10.0609   -0.1014 H   0  0  0  0  0  0  0  0  0  0  0  0
   13.5635   -7.6082    0.0379 H   0  0  0  0  0  0  0  0  0  0  0  0
   10.7857   -5.9114    1.3751 H   0  0  0  0  0  0  0  0  0  0  0  0
    9.9547   -4.3494   -0.3318 H   0  0  0  0  0  0  0  0  0  0  0  0
   10.0333   -2.0723   -1.2046 H   0  0  0  0  0  0  0  0  0  0  0  0
   13.6741   -1.3662    0.9573 H   0  0  0  0  0  0  0  0  0  0  0  0
   14.9381   -3.4355    1.5965 H   0  0  0  0  0  0  0  0  0  0  0  0
   13.5054   -4.5515    6.4618 H   0  0  0  0  0  0  0  0  0  0  0  0
  1  2  1  0  0  0  0
  1 27  1  0  0  0  0
  1 28  1  0  0  0  0
  1 48  1  0  0  0  0
  2  3  1  0  0  0  0
  2 29  1  0  0  0  0
  2 30  1  0  0  0  0
  3  4  1  0  0  0  0
  3 26  1  0  0  0  0
  3 31  1  6  0  0  0
  4  5  1  0  0  0  0
  4 32  1  0  0  0  0
  4 33  1  0  0  0  0
  5  6  1  0  0  0  0
  5 34  1  0  0  0  0
  5 35  1  0  0  0  0
  6  7  1  0  0  0  0
  6 25  1  0  0  0  0
  6 36  1  6  0  0  0
  7  8  1  0  0  0  0
  7 14  1  0  0  0  0
  7 37  1  1  0  0  0
  8  9  2  0  0  0  0
  8 13  1  0  0  0  0
  9 10  1  0  0  0  0
  9 38  1  0  0  0  0
 10 11  2  0  0  0  0
 10 39  1  0  0  0  0
 11 12  1  0  0  0  0
 11 40  1  0  0  0  0
 12 13  2  0  0  0  0
 12 41  1  0  0  0  0
 13 42  1  0  0  0  0
 14 15  1  0  0  0  0
 14 43  1  0  0  0  0
 15 16  2  0  0  0  0
 15 24  1  0  0  0  0
 16 17  1  0  0  0  0
 16 44  1  0  0  0  0
 17 18  2  0  0  0  0
 17 45  1  0  0  0  0
 18 19  1  0  0  0  0
 18 23  1  0  0  0  0
 19 20  1  0  0  0  0
 19 21  1  0  0  0  0
 19 22  1  0  0  0  0
 23 24  2  0  0  0  0
 23 46  1  0  0  0  0
 24 25  1  0  0  0  0
 25 26  1  0  0  0  0
 25 47  1  6  0  0  0
M  CHG  1   1   1
M  END
>  <ID>
CHEMBL1085666

>  <IC50[nM]>
20

$$$$
