@<TRIPOS>MOLECULE
CHEMBL1077204
 66 69 0 0 0
SMALL
GASTEIGER
****
Structure written by MMmdl.
@<TRIPOS>ATOM
      1 C          17.1208   -7.6407   11.4944 C.3     1  LIG1       -0.0433
      2 N          15.6242   -7.2482   11.5606 N.4     1  LIG1        0.2320
      3 C          15.1903   -7.0165   13.0246 C.3     1  LIG1       -0.0433
      4 C          15.2858   -6.0369   10.6535 C.3     1  LIG1       -0.0164
      5 C          15.3687   -6.4451    9.1688 C.3     1  LIG1        0.0531
      6 N          14.6307   -5.5382    8.2833 N.am    1  LIG1       -0.2943
      7 C          15.2046   -4.6148    7.4955 C.2     1  LIG1        0.2999
      8 O          16.4171   -4.3982    7.4780 O.2     1  LIG1       -0.2529
      9 N          14.3250   -3.9893    6.6937 N.am    1  LIG1       -0.2969
     10 C          14.7079   -3.1014    5.5887 C.3     1  LIG1        0.0393
     11 C          14.9053   -3.7799    4.2057 C.3     1  LIG1        0.0750
     12 C          15.0866   -5.3225    4.2389 C.3     1  LIG1       -0.0247
     13 C          15.2182   -5.9111    2.8299 C.3     1  LIG1       -0.0431
     14 C          14.1067   -5.4122    1.8780 C.3     1  LIG1        0.0120
     15 C          12.7152   -6.0685    2.1272 C.3     1  LIG1        0.0514
     16 C          12.7619   -7.5943    2.0392 C.ar    1  LIG1       -0.0269
     17 C          13.2585   -8.2080    0.8850 C.ar    1  LIG1       -0.0568
     18 C          13.3325   -9.5936    0.8010 C.ar    1  LIG1       -0.0614
     19 C          12.9111  -10.3707    1.8760 C.ar    1  LIG1       -0.0617
     20 C          12.4042   -9.7694    3.0248 C.ar    1  LIG1       -0.0614
     21 C          12.3240   -8.3811    3.1077 C.ar    1  LIG1       -0.0568
     22 N          11.7146   -5.5161    1.2136 N.pl3   1  LIG1       -0.3364
     23 C          11.7897   -4.1790    0.7828 C.ar    1  LIG1        0.0333
     24 C          10.7767   -3.7118   -0.0511 C.ar    1  LIG1       -0.0400
     25 C          10.8134   -2.4087   -0.5370 C.ar    1  LIG1       -0.0484
     26 C          11.8546   -1.5518   -0.1784 C.ar    1  LIG1        0.0553
     27 C          11.8961   -0.1327   -0.7370 C.3     1  LIG1        0.4174
     28 F          12.5327   -0.1525   -1.9080 F       1  LIG1       -0.1659
     29 F          10.6622    0.3290   -0.9348 F       1  LIG1       -0.1659
     30 F          12.5354    0.7038    0.0806 F       1  LIG1       -0.1659
     31 C          12.8578   -2.0201    0.6775 C.ar    1  LIG1       -0.0427
     32 C          12.8617   -3.3430    1.1425 C.ar    1  LIG1        0.0028
     33 C          14.0142   -3.8707    1.9829 C.3     1  LIG1        0.0905
     34 O          13.8081   -3.4639    3.3402 O.3     1  LIG1       -0.3668
     35 H          17.7113   -6.7969   11.8567 H       1  LIG1        0.0777
     36 H          17.3740   -7.8767   10.4603 H       1  LIG1        0.0777
     37 H          17.2673   -8.5191   12.1246 H       1  LIG1        0.0777
     38 H          15.8080   -6.2212   13.4462 H       1  LIG1        0.0777
     39 H          15.3361   -7.9568   13.5567 H       1  LIG1        0.0777
     40 H          14.1337   -6.7438   13.0292 H       1  LIG1        0.0777
     41 H          14.2726   -5.7239   10.9114 H       1  LIG1        0.0830
     42 H          15.9845   -5.2443   10.9348 H       1  LIG1        0.0830
     43 H          16.4162   -6.5231    8.8640 H       1  LIG1        0.0515
     44 H          14.9420   -7.4387    9.0363 H       1  LIG1        0.0515
     45 H          13.6294   -5.6568    8.2395 H       1  LIG1        0.1504
     46 H          13.3355   -4.1464    6.8108 H       1  LIG1        0.1503
     47 H          13.9461   -2.3268    5.5168 H       1  LIG1        0.0488
     48 H          15.6254   -2.5650    5.8439 H       1  LIG1        0.0488
     49 H          15.8025   -3.3200    3.7819 H       1  LIG1        0.0612
     50 H          15.9692   -5.5863    4.8210 H       1  LIG1        0.0291
     51 H          14.2376   -5.7853    4.7452 H       1  LIG1        0.0291
     52 H          16.1874   -5.6240    2.4207 H       1  LIG1        0.0270
     53 H          15.2392   -6.9986    2.8928 H       1  LIG1        0.0270
     54 H          14.4252   -5.6330    0.8574 H       1  LIG1        0.0350
     55 H          12.3880   -5.8136    3.1374 H       1  LIG1        0.0551
     56 H          13.5758   -7.6098    0.0450 H       1  LIG1        0.0621
     57 H          13.7099  -10.0616   -0.0950 H       1  LIG1        0.0618
     58 H          12.9588  -11.4481    1.8080 H       1  LIG1        0.0618
     59 H          12.0706  -10.3802    3.8519 H       1  LIG1        0.0618
     60 H          11.9249   -7.9218    4.0012 H       1  LIG1        0.0621
     61 H          10.8052   -5.9499    1.3121 H       1  LIG1        0.1467
     62 H           9.9603   -4.3577   -0.3382 H       1  LIG1        0.0636
     63 H          10.0317   -2.0700   -1.2005 H       1  LIG1        0.0624
     64 H          13.6772   -1.3689    0.9476 H       1  LIG1        0.0627
     65 H          14.9369   -3.4306    1.5995 H       1  LIG1        0.0650
     66 H          15.0791   -8.0358   11.2257 H       1  LIG1        0.2028
@<TRIPOS>BOND
     1     1     2    1
     2     1    35    1
     3     1    36    1
     4     1    37    1
     5     2     3    1
     6     2     4    1
     7     2    66    1
     8     3    38    1
     9     3    39    1
    10     3    40    1
    11     4     5    1
    12     4    41    1
    13     4    42    1
    14     5     6    1
    15     5    43    1
    16     5    44    1
    17     6     7   am
    18     6    45    1
    19     7     8    2
    20     7     9   am
    21     9    10    1
    22     9    46    1
    23    10    11    1
    24    10    47    1
    25    10    48    1
    26    11    12    1
    27    11    34    1
    28    11    49    1
    29    12    13    1
    30    12    50    1
    31    12    51    1
    32    13    14    1
    33    13    52    1
    34    13    53    1
    35    14    15    1
    36    14    33    1
    37    14    54    1
    38    15    16    1
    39    15    22    1
    40    15    55    1
    41    16    17   ar
    42    16    21   ar
    43    17    18   ar
    44    17    56    1
    45    18    19   ar
    46    18    57    1
    47    19    20   ar
    48    19    58    1
    49    20    21   ar
    50    20    59    1
    51    21    60    1
    52    22    23    1
    53    22    61    1
    54    23    24   ar
    55    23    32   ar
    56    24    25   ar
    57    24    62    1
    58    25    26   ar
    59    25    63    1
    60    26    27    1
    61    26    31   ar
    62    27    28    1
    63    27    29    1
    64    27    30    1
    65    31    32   ar
    66    31    64    1
    67    32    33    1
    68    33    34    1
    69    33    65    1
