CHEMBL1093088
 OpenBabel02152110423D
Structure written by MMmdl.
 51 55  0  0  1  0  0  0  0  0999 V2000
   10.6683    0.3259   -0.9315 F   0  0  0  0  0  0  0  0  0  0  0  0
   11.9092   -0.1373   -0.7426 C   0  0  0  0  0  0  0  0  0  0  0  0
   12.5572    0.6970    0.0708 F   0  0  0  0  0  0  0  0  0  0  0  0
   12.5317   -0.1562   -1.9180 F   0  0  0  0  0  0  0  0  0  0  0  0
   11.8546   -1.5518   -0.1871 C   0  0  0  0  0  0  0  0  0  0  0  0
   10.8042   -2.4028   -0.5323 C   0  0  0  0  0  0  0  0  0  0  0  0
   10.7730   -3.7099   -0.0542 C   0  0  0  0  0  0  0  0  0  0  0  0
   11.8144   -4.1935    0.7396 C   0  0  0  0  0  0  0  0  0  0  0  0
   12.8923   -3.3560    1.0946 C   0  0  0  0  0  0  0  0  0  0  0  0
   12.8665   -2.0258    0.6545 C   0  0  0  0  0  0  0  0  0  0  0  0
   14.0494   -3.8568    1.9562 C   0  0  1  0  0  0  0  0  0  0  0  0
   13.8553   -3.4173    3.2710 O   0  0  0  0  0  0  0  0  0  0  0  0
   14.8976   -3.7605    4.1929 C   0  0  1  0  0  0  0  0  0  0  0  0
   14.6578   -3.1005    5.5680 C   0  0  0  0  0  0  0  0  0  0  0  0
   13.2465   -2.9226    5.9121 N   0  0  0  0  0  0  0  0  0  0  0  0
   12.6204   -3.1518    7.1038 C   0  0  0  0  0  0  0  0  0  0  0  0
   11.3473   -2.8639    7.0012 N   0  0  0  0  0  0  0  0  0  0  0  0
   11.2559   -2.4452    5.7470 C   0  0  0  0  0  0  0  0  0  0  0  0
   12.3327   -2.4354    5.0401 N   0  0  0  0  0  0  0  0  0  0  0  0
   15.0684   -5.3101    4.2439 C   0  0  0  0  0  0  0  0  0  0  0  0
   15.2209   -5.9171    2.8316 C   0  0  0  0  0  0  0  0  0  0  0  0
   14.1192   -5.4200    1.8687 C   0  0  1  0  0  0  0  0  0  0  0  0
   12.7212   -6.0707    2.1169 C   0  0  2  0  0  0  0  0  0  0  0  0
   12.7592   -7.5954    2.0346 C   0  0  0  0  0  0  0  0  0  0  0  0
   12.3228   -8.3777    3.1055 C   0  0  0  0  0  0  0  0  0  0  0  0
   12.4048   -9.7653    3.0253 C   0  0  0  0  0  0  0  0  0  0  0  0
   12.9049  -10.3677    1.8739 C   0  0  0  0  0  0  0  0  0  0  0  0
   13.3264   -9.5938    0.7972 C   0  0  0  0  0  0  0  0  0  0  0  0
   13.2517   -8.2084    0.8785 C   0  0  0  0  0  0  0  0  0  0  0  0
   11.7331   -5.5251    1.1808 N   0  0  0  0  0  0  0  0  0  0  0  0
   10.0213   -2.0601   -1.1960 H   0  0  0  0  0  0  0  0  0  0  0  0
    9.9490   -4.3496   -0.3314 H   0  0  0  0  0  0  0  0  0  0  0  0
   13.6823   -1.3752    0.9329 H   0  0  0  0  0  0  0  0  0  0  0  0
   14.9905   -3.4672    1.5172 H   0  0  0  0  0  0  0  0  0  0  0  0
   15.8414   -3.3531    3.8085 H   0  0  0  0  0  0  0  0  0  0  0  0
   15.1289   -3.6931    6.3577 H   0  0  0  0  0  0  0  0  0  0  0  0
   15.1239   -2.1134    5.5876 H   0  0  0  0  0  0  0  0  0  0  0  0
   13.1580   -3.5076    7.9813 H   0  0  0  0  0  0  0  0  0  0  0  0
   10.2992   -2.1530    5.3209 H   0  0  0  0  0  0  0  0  0  0  0  0
   15.9422   -5.5750    4.8418 H   0  0  0  0  0  0  0  0  0  0  0  0
   14.2208   -5.7508    4.7597 H   0  0  0  0  0  0  0  0  0  0  0  0
   16.1877   -5.6158    2.4310 H   0  0  0  0  0  0  0  0  0  0  0  0
   15.2476   -7.0045    2.9003 H   0  0  0  0  0  0  0  0  0  0  0  0
   14.4309   -5.6815    0.8489 H   0  0  0  0  0  0  0  0  0  0  0  0
   12.3740   -5.8074    3.1180 H   0  0  0  0  0  0  0  0  0  0  0  0
   11.9307   -7.9163    4.0008 H   0  0  0  0  0  0  0  0  0  0  0  0
   12.0690  -10.3755    3.8528 H   0  0  0  0  0  0  0  0  0  0  0  0
   12.9609  -11.4432    1.8091 H   0  0  0  0  0  0  0  0  0  0  0  0
   13.6968  -10.0592   -0.1007 H   0  0  0  0  0  0  0  0  0  0  0  0
   13.5613   -7.6079    0.0375 H   0  0  0  0  0  0  0  0  0  0  0  0
   10.8982   -6.0840    1.0444 H   0  0  0  0  0  0  0  0  0  0  0  0
  1  2  1  0  0  0  0
  2  3  1  0  0  0  0
  2  4  1  0  0  0  0
  2  5  1  0  0  0  0
  5  6  2  0  0  0  0
  5 10  1  0  0  0  0
  6  7  1  0  0  0  0
  6 31  1  0  0  0  0
  7  8  2  0  0  0  0
  7 32  1  0  0  0  0
  8  9  1  0  0  0  0
  8 30  1  0  0  0  0
  9 10  2  0  0  0  0
  9 11  1  0  0  0  0
 10 33  1  0  0  0  0
 11 12  1  0  0  0  0
 11 22  1  0  0  0  0
 11 34  1  6  0  0  0
 12 13  1  0  0  0  0
 13 14  1  0  0  0  0
 13 20  1  0  0  0  0
 13 35  1  6  0  0  0
 14 15  1  0  0  0  0
 14 36  1  0  0  0  0
 14 37  1  0  0  0  0
 15 16  1  0  0  0  0
 15 19  1  0  0  0  0
 16 17  2  0  0  0  0
 16 38  1  0  0  0  0
 17 18  1  0  0  0  0
 18 19  2  0  0  0  0
 18 39  1  0  0  0  0
 20 21  1  0  0  0  0
 20 40  1  0  0  0  0
 20 41  1  0  0  0  0
 21 22  1  0  0  0  0
 21 42  1  0  0  0  0
 21 43  1  0  0  0  0
 22 23  1  0  0  0  0
 22 44  1  6  0  0  0
 23 24  1  0  0  0  0
 23 30  1  0  0  0  0
 23 45  1  1  0  0  0
 24 25  2  0  0  0  0
 24 29  1  0  0  0  0
 25 26  1  0  0  0  0
 25 46  1  0  0  0  0
 26 27  2  0  0  0  0
 26 47  1  0  0  0  0
 27 28  1  0  0  0  0
 27 48  1  0  0  0  0
 28 29  2  0  0  0  0
 28 49  1  0  0  0  0
 29 50  1  0  0  0  0
 30 51  1  0  0  0  0
M  END
>  <ID>
CHEMBL1093088

>  <IC50[nM]>
6

$$$$
