@<TRIPOS>MOLECULE
CHEMBL1082249
 58 61 0 0 0
SMALL
GASTEIGER
****
Structure written by MMmdl.
@<TRIPOS>ATOM
      1 C          16.4793   -7.2843   11.3165 C.3     1  LIG1        0.0122
      2 C          15.3531   -6.5124   10.6819 C.2     1  LIG1        0.2101
      3 O          14.3425   -6.2284   11.3248 O.2     1  LIG1       -0.2761
      4 N          15.5705   -6.1542    9.4074 N.am    1  LIG1       -0.3105
      5 C          14.6248   -5.4276    8.5868 C.3     1  LIG1        0.0516
      6 C          15.3309   -4.6310    7.4948 C.3     1  LIG1       -0.0177
      7 N          14.2349   -3.9683    6.6666 N.4     1  LIG1        0.2299
      8 C          14.7037   -3.0483    5.5326 C.3     1  LIG1       -0.0067
      9 C          14.9054   -3.7819    4.1884 C.3     1  LIG1        0.0990
     10 C          15.0841   -5.3250    4.2406 C.3     1  LIG1       -0.0212
     11 C          15.2163   -5.9084    2.8271 C.3     1  LIG1       -0.0430
     12 C          14.0959   -5.4139    1.8851 C.3     1  LIG1        0.0121
     13 C          12.7047   -6.0683    2.1278 C.3     1  LIG1        0.0514
     14 C          12.7518   -7.5911    2.0333 C.ar    1  LIG1       -0.0269
     15 C          12.3185   -8.3767    3.1031 C.ar    1  LIG1       -0.0568
     16 C          12.3947   -9.7647    3.0181 C.ar    1  LIG1       -0.0614
     17 C          12.8984  -10.3649    1.8672 C.ar    1  LIG1       -0.0617
     18 C          13.3180   -9.5891    0.7918 C.ar    1  LIG1       -0.0614
     19 C          13.2433   -8.2036    0.8752 C.ar    1  LIG1       -0.0568
     20 N          11.7323   -5.5141    1.1851 N.pl3   1  LIG1       -0.3342
     21 C          11.7964   -4.1649    0.7844 C.ar    1  LIG1        0.0690
     22 C          10.7831   -3.6789   -0.0372 C.ar    1  LIG1        0.1455
     23 F           9.7490   -4.4602   -0.3161 F       1  LIG1       -0.2035
     24 C          10.8205   -2.3838   -0.5398 C.ar    1  LIG1       -0.0106
     25 C          11.8667   -1.5519   -0.1779 C.ar    1  LIG1        0.0210
     26 BR         11.9398    0.2253   -0.8395 Br      1  LIG1       -0.0502
     27 C          12.8708   -2.0181    0.6698 C.ar    1  LIG1       -0.0402
     28 C          12.8692   -3.3398    1.1350 C.ar    1  LIG1        0.0062
     29 C          14.0156   -3.8713    1.9784 C.3     1  LIG1        0.0908
     30 O          13.8110   -3.4596    3.3295 O.3     1  LIG1       -0.3631
     31 H          17.2860   -7.4122   10.5963 H       1  LIG1        0.0322
     32 H          16.1209   -8.2634   11.6274 H       1  LIG1        0.0322
     33 H          16.8684   -6.7396   12.1761 H       1  LIG1        0.0322
     34 H          16.4618   -6.3688    8.9839 H       1  LIG1        0.1489
     35 H          13.9298   -6.1630    8.1684 H       1  LIG1        0.0515
     36 H          14.0418   -4.7470    9.2039 H       1  LIG1        0.0515
     37 H          16.0166   -3.8888    7.8979 H       1  LIG1        0.0829
     38 H          15.8487   -5.2672    6.7726 H       1  LIG1        0.0829
     39 H          13.6134   -4.6809    6.3124 H       1  LIG1        0.2015
     40 H          13.8909   -2.3248    5.4758 H       1  LIG1        0.0839
     41 H          15.5997   -2.5296    5.8821 H       1  LIG1        0.0839
     42 H          15.8101   -3.3391    3.7698 H       1  LIG1        0.0650
     43 H          15.9741   -5.5907    4.8114 H       1  LIG1        0.0292
     44 H          14.2386   -5.8006    4.7402 H       1  LIG1        0.0292
     45 H          16.1810   -5.6068    2.4136 H       1  LIG1        0.0270
     46 H          15.2464   -6.9959    2.8761 H       1  LIG1        0.0270
     47 H          14.4070   -5.6435    0.8654 H       1  LIG1        0.0350
     48 H          12.3679   -5.8170    3.1367 H       1  LIG1        0.0551
     49 H          11.9257   -7.9159    3.9980 H       1  LIG1        0.0621
     50 H          12.0597  -10.3748    3.8454 H       1  LIG1        0.0618
     51 H          12.9444  -11.4421    1.8009 H       1  LIG1        0.0618
     52 H          13.6837  -10.0591   -0.1086 H       1  LIG1        0.0618
     53 H          13.5566   -7.6057    0.0323 H       1  LIG1        0.0621
     54 H          10.9526   -6.1058    0.9333 H       1  LIG1        0.1468
     55 H          10.0263   -2.0396   -1.1886 H       1  LIG1        0.0658
     56 H          13.6827   -1.3602    0.9293 H       1  LIG1        0.0633
     57 H          14.9414   -3.4345    1.5999 H       1  LIG1        0.0650
     58 H          13.7266   -3.3987    7.3300 H       1  LIG1        0.2015
@<TRIPOS>BOND
     1     1     2    1
     2     1    31    1
     3     1    32    1
     4     1    33    1
     5     2     3    2
     6     2     4   am
     7     4     5    1
     8     4    34    1
     9     5     6    1
    10     5    35    1
    11     5    36    1
    12     6     7    1
    13     6    37    1
    14     6    38    1
    15     7     8    1
    16     7    39    1
    17     7    58    1
    18     8     9    1
    19     8    40    1
    20     8    41    1
    21     9    10    1
    22     9    30    1
    23     9    42    1
    24    10    11    1
    25    10    43    1
    26    10    44    1
    27    11    12    1
    28    11    45    1
    29    11    46    1
    30    12    13    1
    31    12    29    1
    32    12    47    1
    33    13    14    1
    34    13    20    1
    35    13    48    1
    36    14    15   ar
    37    14    19   ar
    38    15    16   ar
    39    15    49    1
    40    16    17   ar
    41    16    50    1
    42    17    18   ar
    43    17    51    1
    44    18    19   ar
    45    18    52    1
    46    19    53    1
    47    20    21    1
    48    20    54    1
    49    21    22   ar
    50    21    28   ar
    51    22    23    1
    52    22    24   ar
    53    24    25   ar
    54    24    55    1
    55    25    26    1
    56    25    27   ar
    57    27    28   ar
    58    27    56    1
    59    28    29    1
    60    29    30    1
    61    29    57    1
