@<TRIPOS>MOLECULE
CHEMBL1084935
 70 73 0 0 0
SMALL
GASTEIGER
****
Structure written by MMmdl.
@<TRIPOS>ATOM
      1 C          11.8941   -2.8870    6.6585 C.3     1  LIG1       -0.0245
      2 C          13.1611   -3.1833    7.4914 C.3     1  LIG1       -0.0346
      3 N          14.1889   -3.9556    6.6529 N.4     1  LIG1        0.2385
      4 C          15.2831   -4.6170    7.5349 C.3     1  LIG1       -0.0081
      5 C          14.6484   -5.6321    8.4883 C.3     1  LIG1        0.0841
      6 O          15.6314   -6.4882    9.0155 O.3     1  LIG1       -0.3898
      7 C          14.7830   -3.0434    5.5472 C.3     1  LIG1       -0.0049
      8 C          14.9397   -3.7821    4.1936 C.3     1  LIG1        0.0991
      9 C          15.0827   -5.3316    4.2335 C.3     1  LIG1       -0.0212
     10 C          15.2131   -5.9184    2.8241 C.3     1  LIG1       -0.0430
     11 C          14.0995   -5.4193    1.8815 C.3     1  LIG1        0.0121
     12 C          12.7089   -6.0737    2.1363 C.3     1  LIG1        0.0514
     13 C          12.7560   -7.5938    2.0385 C.ar    1  LIG1       -0.0269
     14 C          12.3233   -8.3792    3.1082 C.ar    1  LIG1       -0.0568
     15 C          12.4013   -9.7662    3.0214 C.ar    1  LIG1       -0.0614
     16 C          12.9053  -10.3669    1.8706 C.ar    1  LIG1       -0.0617
     17 C          13.3256   -9.5903    0.7954 C.ar    1  LIG1       -0.0614
     18 C          13.2476   -8.2058    0.8797 C.ar    1  LIG1       -0.0568
     19 N          11.7083   -5.5287    1.2201 N.pl3   1  LIG1       -0.3364
     20 C          11.7889   -4.1985    0.7863 C.ar    1  LIG1        0.0333
     21 C          10.7777   -3.7353   -0.0458 C.ar    1  LIG1       -0.0402
     22 C          10.8328   -2.4457   -0.5434 C.ar    1  LIG1       -0.0563
     23 C          11.8762   -1.5795   -0.1948 C.ar    1  LIG1       -0.0415
     24 C          11.9234   -0.1516   -0.7693 C.3     1  LIG1       -0.0127
     25 C          12.6677    0.8246    0.1645 C.3     1  LIG1       -0.0560
     26 C          10.4765    0.3389   -0.9933 C.3     1  LIG1       -0.0560
     27 C          12.6705   -0.1459   -2.1072 C.3     1  LIG1       -0.0560
     28 C          12.8668   -2.0505    0.6751 C.ar    1  LIG1       -0.0507
     29 C          12.8600   -3.3611    1.1455 C.ar    1  LIG1        0.0026
     30 C          14.0148   -3.8794    1.9822 C.3     1  LIG1        0.0907
     31 O          13.8256   -3.4715    3.3390 O.3     1  LIG1       -0.3631
     32 H          11.1742   -2.2996    7.2500 H       1  LIG1        0.0281
     33 H          11.4154   -3.8259    6.3623 H       1  LIG1        0.0281
     34 H          12.0785   -2.3275    5.7398 H       1  LIG1        0.0281
     35 H          13.6696   -2.2854    7.8652 H       1  LIG1        0.0812
     36 H          12.8526   -3.7729    8.3489 H       1  LIG1        0.0812
     37 H          15.9752   -5.1154    6.8759 H       1  LIG1        0.0837
     38 H          15.8111   -3.8259    8.0549 H       1  LIG1        0.0837
     39 H          14.1682   -5.1616    9.3545 H       1  LIG1        0.0610
     40 H          13.8946   -6.2297    7.9694 H       1  LIG1        0.0610
     41 H          16.1600   -5.9879    9.6528 H       1  LIG1        0.2096
     42 H          14.1503   -2.1969    5.3703 H       1  LIG1        0.0840
     43 H          15.7253   -2.6313    5.9175 H       1  LIG1        0.0840
     44 H          15.8458   -3.3513    3.7378 H       1  LIG1        0.0650
     45 H          15.9744   -5.6136    4.7825 H       1  LIG1        0.0292
     46 H          14.2321   -5.7899    4.7451 H       1  LIG1        0.0292
     47 H          16.1795   -5.6227    2.4155 H       1  LIG1        0.0270
     48 H          15.2373   -7.0043    2.8858 H       1  LIG1        0.0270
     49 H          14.4132   -5.6373    0.8604 H       1  LIG1        0.0350
     50 H          12.3738   -5.8192    3.1443 H       1  LIG1        0.0551
     51 H          11.9358   -7.9185    4.0054 H       1  LIG1        0.0621
     52 H          12.0658  -10.3743    3.8490 H       1  LIG1        0.0618
     53 H          12.9492  -11.4443    1.8028 H       1  LIG1        0.0618
     54 H          13.6945  -10.0591   -0.1044 H       1  LIG1        0.0618
     55 H          13.5566   -7.6057    0.0367 H       1  LIG1        0.0621
     56 H          10.7987   -5.9708    1.2887 H       1  LIG1        0.1467
     57 H           9.9449   -4.3656   -0.3156 H       1  LIG1        0.0636
     58 H          10.0342   -2.1354   -1.1967 H       1  LIG1        0.0621
     59 H          12.5901    1.8750   -0.1283 H       1  LIG1        0.0238
     60 H          13.7299    0.5873    0.1975 H       1  LIG1        0.0238
     61 H          12.3721    0.7011    1.1918 H       1  LIG1        0.0238
     62 H           9.7853   -0.0025   -0.2578 H       1  LIG1        0.0238
     63 H          10.0269   -0.0771   -1.9126 H       1  LIG1        0.0238
     64 H          10.3268    1.3824   -1.0970 H       1  LIG1        0.0238
     65 H          12.6130    0.8052   -2.6352 H       1  LIG1        0.0238
     66 H          12.2275   -0.8945   -2.7357 H       1  LIG1        0.0238
     67 H          13.7202   -0.4120   -1.9978 H       1  LIG1        0.0238
     68 H          13.6877   -1.4191    0.9735 H       1  LIG1        0.0625
     69 H          14.9392   -3.4400    1.6016 H       1  LIG1        0.0650
     70 H          13.6941   -4.7009    6.2036 H       1  LIG1        0.2035
@<TRIPOS>BOND
     1     1     2    1
     2     1    32    1
     3     1    33    1
     4     1    34    1
     5     2     3    1
     6     2    35    1
     7     2    36    1
     8     3     4    1
     9     3     7    1
    10     3    70    1
    11     4     5    1
    12     4    37    1
    13     4    38    1
    14     5     6    1
    15     5    39    1
    16     5    40    1
    17     6    41    1
    18     7     8    1
    19     7    42    1
    20     7    43    1
    21     8     9    1
    22     8    31    1
    23     8    44    1
    24     9    10    1
    25     9    45    1
    26     9    46    1
    27    10    11    1
    28    10    47    1
    29    10    48    1
    30    11    12    1
    31    11    30    1
    32    11    49    1
    33    12    13    1
    34    12    19    1
    35    12    50    1
    36    13    14   ar
    37    13    18   ar
    38    14    15   ar
    39    14    51    1
    40    15    16   ar
    41    15    52    1
    42    16    17   ar
    43    16    53    1
    44    17    18   ar
    45    17    54    1
    46    18    55    1
    47    19    20    1
    48    19    56    1
    49    20    21   ar
    50    20    29   ar
    51    21    22   ar
    52    21    57    1
    53    22    23   ar
    54    22    58    1
    55    23    24    1
    56    23    28   ar
    57    24    25    1
    58    24    26    1
    59    24    27    1
    60    25    59    1
    61    25    60    1
    62    25    61    1
    63    26    62    1
    64    26    63    1
    65    26    64    1
    66    27    65    1
    67    27    66    1
    68    27    67    1
    69    28    29   ar
    70    28    68    1
    71    29    30    1
    72    30    31    1
    73    30    69    1
