CHEMBL1089393
 OpenBabel02152110423D
Structure written by MMmdl.
 39 42  0  0  1  0  0  0  0  0999 V2000
   14.8893   -3.7981    4.1945 C   0  0  0  0  0  0  0  0  0  0  0  0
   15.0804   -5.3249    4.2412 C   0  0  0  0  0  0  0  0  0  0  0  0
   15.2239   -5.9068    2.8287 C   0  0  0  0  0  0  0  0  0  0  0  0
   14.1049   -5.4146    1.8817 C   0  0  1  0  0  0  0  0  0  0  0  0
   12.7106   -6.0702    2.1171 C   0  0  2  0  0  0  0  0  0  0  0  0
   12.7580   -7.5939    2.0347 C   0  0  0  0  0  0  0  0  0  0  0  0
   12.3194   -8.3766    3.1039 C   0  0  0  0  0  0  0  0  0  0  0  0
   12.3978   -9.7673    3.0196 C   0  0  0  0  0  0  0  0  0  0  0  0
   12.9042  -10.3679    1.8692 C   0  0  0  0  0  0  0  0  0  0  0  0
   13.3260   -9.5937    0.7962 C   0  0  0  0  0  0  0  0  0  0  0  0
   13.2507   -8.2088    0.8795 C   0  0  0  0  0  0  0  0  0  0  0  0
   11.7473   -5.5319    1.1616 N   0  0  0  0  0  0  0  0  0  0  0  0
   11.7944   -4.1869    0.7523 C   0  0  0  0  0  0  0  0  0  0  0  0
   10.7727   -3.7107   -0.0610 C   0  0  0  0  0  0  0  0  0  0  0  0
   10.8032   -2.4026   -0.5353 C   0  0  0  0  0  0  0  0  0  0  0  0
   11.8552   -1.5670   -0.1635 C   0  0  0  0  0  0  0  0  0  0  0  0
   11.9379    0.0314   -0.7672 Cl  0  0  0  0  0  0  0  0  0  0  0  0
   12.8564   -2.0281    0.6785 C   0  0  0  0  0  0  0  0  0  0  0  0
   12.8661   -3.3474    1.1339 C   0  0  0  0  0  0  0  0  0  0  0  0
   14.0119   -3.8725    1.9814 C   0  0  1  0  0  0  0  0  0  0  0  0
   13.8062   -3.4544    3.3298 O   0  0  0  0  0  0  0  0  0  0  0  0
   15.8089   -3.3291    3.8337 H   0  0  0  0  0  0  0  0  0  0  0  0
   14.2305   -5.7850    4.7470 H   0  0  0  0  0  0  0  0  0  0  0  0
   15.9612   -5.5785    4.8331 H   0  0  0  0  0  0  0  0  0  0  0  0
   15.2499   -6.9950    2.8822 H   0  0  0  0  0  0  0  0  0  0  0  0
   16.1888   -5.6094    2.4116 H   0  0  0  0  0  0  0  0  0  0  0  0
   14.4180   -5.6334    0.8605 H   0  0  0  0  0  0  0  0  0  0  0  0
   12.3624   -5.8151    3.1221 H   0  0  0  0  0  0  0  0  0  0  0  0
   11.9273   -7.9173    3.9994 H   0  0  0  0  0  0  0  0  0  0  0  0
   12.0644  -10.3748    3.8484 H   0  0  0  0  0  0  0  0  0  0  0  0
   12.9482  -11.4459    1.8023 H   0  0  0  0  0  0  0  0  0  0  0  0
   13.6939  -10.0609   -0.1057 H   0  0  0  0  0  0  0  0  0  0  0  0
   13.5643   -7.6077    0.0384 H   0  0  0  0  0  0  0  0  0  0  0  0
   10.9613   -6.1290    0.9493 H   0  0  0  0  0  0  0  0  0  0  0  0
    9.9479   -4.3538   -0.3413 H   0  0  0  0  0  0  0  0  0  0  0  0
   10.0267   -2.0394   -1.1925 H   0  0  0  0  0  0  0  0  0  0  0  0
   13.6764   -1.3643    0.9323 H   0  0  0  0  0  0  0  0  0  0  0  0
   14.9419   -3.4369    1.6042 H   0  0  0  0  0  0  0  0  0  0  0  0
   14.7142   -3.3943    5.1913 H   0  0  0  0  0  0  0  0  0  0  0  0
  1  2  1  0  0  0  0
  1 21  1  0  0  0  0
  1 22  1  0  0  0  0
  1 39  1  0  0  0  0
  2  3  1  0  0  0  0
  2 23  1  0  0  0  0
  2 24  1  0  0  0  0
  3  4  1  0  0  0  0
  3 25  1  0  0  0  0
  3 26  1  0  0  0  0
  4  5  1  0  0  0  0
  4 20  1  0  0  0  0
  4 27  1  6  0  0  0
  5  6  1  0  0  0  0
  5 12  1  0  0  0  0
  5 28  1  1  0  0  0
  6  7  2  0  0  0  0
  6 11  1  0  0  0  0
  7  8  1  0  0  0  0
  7 29  1  0  0  0  0
  8  9  2  0  0  0  0
  8 30  1  0  0  0  0
  9 10  1  0  0  0  0
  9 31  1  0  0  0  0
 10 11  2  0  0  0  0
 10 32  1  0  0  0  0
 11 33  1  0  0  0  0
 12 13  1  0  0  0  0
 12 34  1  0  0  0  0
 13 14  2  0  0  0  0
 13 19  1  0  0  0  0
 14 15  1  0  0  0  0
 14 35  1  0  0  0  0
 15 16  2  0  0  0  0
 15 36  1  0  0  0  0
 16 17  1  0  0  0  0
 16 18  1  0  0  0  0
 18 19  2  0  0  0  0
 18 37  1  0  0  0  0
 19 20  1  0  0  0  0
 20 21  1  0  0  0  0
 20 38  1  6  0  0  0
M  END
>  <ID>
CHEMBL1089393

>  <IC50[nM]>
720

$$$$
