CHEMBL1077227
 OpenBabel02152110423D
Structure written by MMmdl.
 57 60  0  0  1  0  0  0  0  0999 V2000
   15.2899   -4.6440    7.5351 C   0  0  0  0  0  0  0  0  0  0  0  0
   14.2408   -3.9683    6.6690 N   0  3  0  0  0  0  0  0  0  0  0  0
   14.7206   -3.0566    5.5418 C   0  0  0  0  0  0  0  0  0  0  0  0
   14.8984   -3.7855    4.1902 C   0  0  1  0  0  0  0  0  0  0  0  0
   15.0728   -5.3257    4.2388 C   0  0  0  0  0  0  0  0  0  0  0  0
   15.2134   -5.9104    2.8261 C   0  0  0  0  0  0  0  0  0  0  0  0
   14.0958   -5.4095    1.8827 C   0  0  1  0  0  0  0  0  0  0  0  0
   12.7022   -6.0636    2.1368 C   0  0  2  0  0  0  0  0  0  0  0  0
   12.7070   -7.5842    2.0907 C   0  0  0  0  0  0  0  0  0  0  0  0
   12.2595   -8.4762    3.0628 C   0  0  0  0  0  0  0  0  0  0  0  0
   12.4745   -9.8243    2.7647 C   0  0  0  0  0  0  0  0  0  0  0  0
   13.0252  -10.0075    1.5129 C   0  0  0  0  0  0  0  0  0  0  0  0
   13.3330   -8.4922    0.7364 S   0  0  0  0  0  0  0  0  0  0  0  0
   11.6991   -5.5164    1.2216 N   0  0  0  0  0  0  0  0  0  0  0  0
   11.7868   -4.1856    0.7799 C   0  0  0  0  0  0  0  0  0  0  0  0
   10.7738   -3.7177   -0.0535 C   0  0  0  0  0  0  0  0  0  0  0  0
   10.8219   -2.4249   -0.5507 C   0  0  0  0  0  0  0  0  0  0  0  0
   11.8669   -1.5627   -0.1974 C   0  0  0  0  0  0  0  0  0  0  0  0
   11.9198   -0.1294   -0.7526 C   0  0  0  0  0  0  0  0  0  0  0  0
   10.4882    0.3797   -0.9919 C   0  0  0  0  0  0  0  0  0  0  0  0
   12.6705   -0.0930   -2.0912 C   0  0  0  0  0  0  0  0  0  0  0  0
   12.6599    0.8143    0.2183 C   0  0  0  0  0  0  0  0  0  0  0  0
   12.8580   -2.0372    0.6716 C   0  0  0  0  0  0  0  0  0  0  0  0
   12.8622   -3.3514    1.1382 C   0  0  0  0  0  0  0  0  0  0  0  0
   14.0094   -3.8677    1.9934 C   0  0  1  0  0  0  0  0  0  0  0  0
   13.7960   -3.4623    3.3445 O   0  0  0  0  0  0  0  0  0  0  0  0
   14.6664   -5.2237    8.2169 H   0  0  0  0  0  0  0  0  0  0  0  0
   15.8523   -3.8448    8.0176 H   0  0  0  0  0  0  0  0  0  0  0  0
   15.8748   -5.2649    6.8653 H   0  0  0  0  0  0  0  0  0  0  0  0
   13.7110   -4.7018    6.2296 H   0  0  0  0  0  0  0  0  0  0  0  0
   13.9057   -2.3303    5.5154 H   0  0  0  0  0  0  0  0  0  0  0  0
   15.6371   -2.5924    5.9000 H   0  0  0  0  0  0  0  0  0  0  0  0
   15.7935   -3.3529    3.7429 H   0  0  0  0  0  0  0  0  0  0  0  0
   15.9485   -5.5941    4.8268 H   0  0  0  0  0  0  0  0  0  0  0  0
   14.2142   -5.7907    4.7217 H   0  0  0  0  0  0  0  0  0  0  0  0
   16.1837   -5.6238    2.4135 H   0  0  0  0  0  0  0  0  0  0  0  0
   15.2279   -6.9978    2.8763 H   0  0  0  0  0  0  0  0  0  0  0  0
   14.4053   -5.6215    0.8588 H   0  0  0  0  0  0  0  0  0  0  0  0
   12.3641   -5.7750    3.1321 H   0  0  0  0  0  0  0  0  0  0  0  0
   11.8117   -8.1486    3.9889 H   0  0  0  0  0  0  0  0  0  0  0  0
   12.2118  -10.6326    3.4332 H   0  0  0  0  0  0  0  0  0  0  0  0
   13.2650  -10.9429    1.0257 H   0  0  0  0  0  0  0  0  0  0  0  0
   10.7720   -5.8918    1.3809 H   0  0  0  0  0  0  0  0  0  0  0  0
    9.9477   -4.3525   -0.3357 H   0  0  0  0  0  0  0  0  0  0  0  0
   10.0337   -2.1012   -1.2145 H   0  0  0  0  0  0  0  0  0  0  0  0
   10.4127    1.4448   -1.0125 H   0  0  0  0  0  0  0  0  0  0  0  0
    9.8181    0.0700   -0.2204 H   0  0  0  0  0  0  0  0  0  0  0  0
   10.0518    0.0158   -1.8864 H   0  0  0  0  0  0  0  0  0  0  0  0
   12.1527   -0.6813   -2.8327 H   0  0  0  0  0  0  0  0  0  0  0  0
   13.6843   -0.4720   -2.0012 H   0  0  0  0  0  0  0  0  0  0  0  0
   12.7560    0.9141   -2.4864 H   0  0  0  0  0  0  0  0  0  0  0  0
   12.5165    1.8671   -0.0212 H   0  0  0  0  0  0  0  0  0  0  0  0
   13.7282    0.6208    0.2096 H   0  0  0  0  0  0  0  0  0  0  0  0
   12.3734    0.6364    1.2460 H   0  0  0  0  0  0  0  0  0  0  0  0
   13.6663   -1.3913    0.9779 H   0  0  0  0  0  0  0  0  0  0  0  0
   14.9478   -3.4140    1.6615 H   0  0  0  0  0  0  0  0  0  0  0  0
   13.6614   -3.4199    7.2878 H   0  0  0  0  0  0  0  0  0  0  0  0
  1  2  1  0  0  0  0
  1 27  1  0  0  0  0
  1 28  1  0  0  0  0
  1 29  1  0  0  0  0
  2  3  1  0  0  0  0
  2 30  1  0  0  0  0
  2 57  1  0  0  0  0
  3  4  1  0  0  0  0
  3 31  1  0  0  0  0
  3 32  1  0  0  0  0
  4  5  1  0  0  0  0
  4 26  1  0  0  0  0
  4 33  1  6  0  0  0
  5  6  1  0  0  0  0
  5 34  1  0  0  0  0
  5 35  1  0  0  0  0
  6  7  1  0  0  0  0
  6 36  1  0  0  0  0
  6 37  1  0  0  0  0
  7  8  1  0  0  0  0
  7 25  1  0  0  0  0
  7 38  1  6  0  0  0
  8  9  1  0  0  0  0
  8 14  1  0  0  0  0
  8 39  1  1  0  0  0
  9 10  2  0  0  0  0
  9 13  1  0  0  0  0
 10 11  1  0  0  0  0
 10 40  1  0  0  0  0
 11 12  2  0  0  0  0
 11 41  1  0  0  0  0
 12 13  1  0  0  0  0
 12 42  1  0  0  0  0
 14 15  1  0  0  0  0
 14 43  1  0  0  0  0
 15 16  2  0  0  0  0
 15 24  1  0  0  0  0
 16 17  1  0  0  0  0
 16 44  1  0  0  0  0
 17 18  2  0  0  0  0
 17 45  1  0  0  0  0
 18 19  1  0  0  0  0
 18 23  1  0  0  0  0
 19 20  1  0  0  0  0
 19 21  1  0  0  0  0
 19 22  1  0  0  0  0
 20 46  1  0  0  0  0
 20 47  1  0  0  0  0
 20 48  1  0  0  0  0
 21 49  1  0  0  0  0
 21 50  1  0  0  0  0
 21 51  1  0  0  0  0
 22 52  1  0  0  0  0
 22 53  1  0  0  0  0
 22 54  1  0  0  0  0
 23 24  2  0  0  0  0
 23 55  1  0  0  0  0
 24 25  1  0  0  0  0
 25 26  1  0  0  0  0
 25 56  1  6  0  0  0
M  CHG  1   2   1
M  END
>  <ID>
CHEMBL1077227

>  <IC50[nM]>
5

$$$$
