@<TRIPOS>MOLECULE
CHEMBL1089056
 51 54 0 0 0
SMALL
GASTEIGER
****
Structure written by MMmdl.
@<TRIPOS>ATOM
      1 C          12.8440    0.7919    0.0923 C.3     1  LIG1       -0.0560
      2 C          11.9510   -0.1740   -0.7292 C.3     1  LIG1       -0.0127
      3 C          10.5043    0.3281   -0.7907 C.3     1  LIG1       -0.0560
      4 C          12.4899   -0.2213   -2.1417 C.3     1  LIG1       -0.0560
      5 C          11.8886   -1.5912   -0.1659 C.ar    1  LIG1       -0.0415
      6 C          10.8674   -2.4721   -0.5416 C.ar    1  LIG1       -0.0563
      7 C          10.7974   -3.7635   -0.0404 C.ar    1  LIG1       -0.0402
      8 C          11.8031   -4.2332    0.7903 C.ar    1  LIG1        0.0333
      9 C          12.8759   -3.4004    1.1456 C.ar    1  LIG1        0.0026
     10 C          12.8695   -2.0850    0.7008 C.ar    1  LIG1       -0.0507
     11 C          14.0244   -3.9056    1.9931 C.3     1  LIG1        0.0901
     12 O          13.7945   -3.4603    3.3342 O.3     1  LIG1       -0.3716
     13 C          14.8679   -3.7921    4.2158 C.3     1  LIG1        0.0485
     14 C          15.0733   -5.3223    4.2605 C.3     1  LIG1       -0.0290
     15 C          15.2307   -5.9110    2.8490 C.3     1  LIG1       -0.0435
     16 C          14.1153   -5.4365    1.8937 C.3     1  LIG1        0.0120
     17 C          12.7183   -6.0874    2.1403 C.3     1  LIG1        0.0514
     18 C          12.7673   -7.6067    2.0472 C.ar    1  LIG1       -0.0269
     19 C          12.3297   -8.3923    3.1162 C.ar    1  LIG1       -0.0568
     20 C          12.4058   -9.7806    3.0303 C.ar    1  LIG1       -0.0614
     21 C          12.9252  -10.3773    1.8827 C.ar    1  LIG1       -0.0617
     22 C          13.3326   -9.5998    0.8058 C.ar    1  LIG1       -0.0614
     23 C          13.2534   -8.2136    0.8875 C.ar    1  LIG1       -0.0568
     24 N          11.7244   -5.5627    1.2182 N.pl3   1  LIG1       -0.3364
     25 H          12.9419    1.8039   -0.3195 H       1  LIG1        0.0238
     26 H          13.8412    0.3849    0.0936 H       1  LIG1        0.0238
     27 H          12.5513    0.8599    1.1381 H       1  LIG1        0.0238
     28 H          10.1585    0.2508    0.1995 H       1  LIG1        0.0238
     29 H           9.8173   -0.1840   -1.4404 H       1  LIG1        0.0238
     30 H          10.2881    1.3288   -1.0813 H       1  LIG1        0.0238
     31 H          12.7546    0.7362   -2.5815 H       1  LIG1        0.0238
     32 H          11.6835   -0.6584   -2.7076 H       1  LIG1        0.0238
     33 H          13.3441   -0.8652   -2.2592 H       1  LIG1        0.0238
     34 H          10.0789   -2.1827   -1.2109 H       1  LIG1        0.0621
     35 H           9.9625   -4.3964   -0.3281 H       1  LIG1        0.0636
     36 H          13.7124   -1.5054    1.0214 H       1  LIG1        0.0625
     37 H          14.9481   -3.4636    1.6062 H       1  LIG1        0.0650
     38 H          15.7885   -3.3233    3.8717 H       1  LIG1        0.0560
     39 H          14.6565   -3.4018    5.2084 H       1  LIG1        0.0560
     40 H          15.9488   -5.5615    4.8654 H       1  LIG1        0.0287
     41 H          14.2172   -5.7782    4.7576 H       1  LIG1        0.0287
     42 H          16.1993   -5.6154    2.4368 H       1  LIG1        0.0270
     43 H          15.2605   -6.9979    2.9035 H       1  LIG1        0.0270
     44 H          14.4350   -5.6514    0.8706 H       1  LIG1        0.0350
     45 H          12.3839   -5.8281    3.1467 H       1  LIG1        0.0551
     46 H          11.9266   -7.9256    4.0075 H       1  LIG1        0.0621
     47 H          12.0849  -10.3883    3.8589 H       1  LIG1        0.0618
     48 H          12.9621  -11.4564    1.8116 H       1  LIG1        0.0618
     49 H          13.7105  -10.0654   -0.0977 H       1  LIG1        0.0618
     50 H          13.5752   -7.6146    0.0540 H       1  LIG1        0.0621
     51 H          10.8173   -5.9953    1.3112 H       1  LIG1        0.1467
@<TRIPOS>BOND
     1     1     2    1
     2     1    25    1
     3     1    26    1
     4     1    27    1
     5     2     3    1
     6     2     4    1
     7     2     5    1
     8     3    28    1
     9     3    29    1
    10     3    30    1
    11     4    31    1
    12     4    32    1
    13     4    33    1
    14     5     6   ar
    15     5    10   ar
    16     6     7   ar
    17     6    34    1
    18     7     8   ar
    19     7    35    1
    20     8     9   ar
    21     8    24    1
    22     9    10   ar
    23     9    11    1
    24    10    36    1
    25    11    12    1
    26    11    16    1
    27    11    37    1
    28    12    13    1
    29    13    14    1
    30    13    38    1
    31    13    39    1
    32    14    15    1
    33    14    40    1
    34    14    41    1
    35    15    16    1
    36    15    42    1
    37    15    43    1
    38    16    17    1
    39    16    44    1
    40    17    18    1
    41    17    24    1
    42    17    45    1
    43    18    19   ar
    44    18    23   ar
    45    19    20   ar
    46    19    46    1
    47    20    21   ar
    48    20    47    1
    49    21    22   ar
    50    21    48    1
    51    22    23   ar
    52    22    49    1
    53    23    50    1
    54    24    51    1
