CHEMBL1084678
 OpenBabel02152110423D
Structure written by MMmdl.
 65 68  0  0  1  0  0  0  0  0999 V2000
   13.9216   -5.2248    6.2140 C   0  0  0  0  0  0  0  0  0  0  0  0
   14.3931   -3.9357    6.7113 N   0  0  0  0  0  0  0  0  0  0  0  0
   14.7292   -3.0772    5.5493 C   0  0  0  0  0  0  0  0  0  0  0  0
   14.9090   -3.7899    4.1939 C   0  0  1  0  0  0  0  0  0  0  0  0
   15.0802   -5.3264    4.2516 C   0  0  0  0  0  0  0  0  0  0  0  0
   15.2184   -5.9103    2.8356 C   0  0  0  0  0  0  0  0  0  0  0  0
   14.1038   -5.4145    1.8827 C   0  0  1  0  0  0  0  0  0  0  0  0
   12.7108   -6.0690    2.1214 C   0  0  2  0  0  0  0  0  0  0  0  0
   12.7593   -7.5926    2.0373 C   0  0  0  0  0  0  0  0  0  0  0  0
   13.2528   -8.2067    0.8813 C   0  0  0  0  0  0  0  0  0  0  0  0
   13.3297   -9.5928    0.7978 C   0  0  0  0  0  0  0  0  0  0  0  0
   12.9076  -10.3673    1.8725 C   0  0  0  0  0  0  0  0  0  0  0  0
   12.4034   -9.7655    3.0228 C   0  0  0  0  0  0  0  0  0  0  0  0
   12.3256   -8.3763    3.1078 C   0  0  0  0  0  0  0  0  0  0  0  0
   11.7374   -5.5233    1.1763 N   0  0  0  0  0  0  0  0  0  0  0  0
   11.7936   -4.1831    0.7614 C   0  0  0  0  0  0  0  0  0  0  0  0
   10.7743   -3.7096   -0.0570 C   0  0  0  0  0  0  0  0  0  0  0  0
   10.8089   -2.4050   -0.5396 C   0  0  0  0  0  0  0  0  0  0  0  0
   11.8578   -1.5536   -0.1865 C   0  0  0  0  0  0  0  0  0  0  0  0
   11.9038   -0.1354   -0.7457 C   0  0  0  0  0  0  0  0  0  0  0  0
   12.5538    0.6943    0.0706 F   0  0  0  0  0  0  0  0  0  0  0  0
   10.6704    0.3354   -0.9312 F   0  0  0  0  0  0  0  0  0  0  0  0
   12.5323   -0.1555   -1.9215 F   0  0  0  0  0  0  0  0  0  0  0  0
   12.8594   -2.0221    0.6688 C   0  0  0  0  0  0  0  0  0  0  0  0
   12.8662   -3.3440    1.1312 C   0  0  0  0  0  0  0  0  0  0  0  0
   14.0156   -3.8719    1.9779 C   0  0  1  0  0  0  0  0  0  0  0  0
   13.8095   -3.4697    3.3345 O   0  0  0  0  0  0  0  0  0  0  0  0
   15.6866   -4.1881    7.8512 S   0  0  0  0  0  0  0  0  0  0  0  0
   15.9605   -2.8994    8.4965 O   0  0  0  0  0  0  0  0  0  0  0  0
   16.7692   -4.9053    7.1723 O   0  0  0  0  0  0  0  0  0  0  0  0
   14.8572   -5.3740    9.0989 C   0  0  0  0  0  0  0  0  0  0  0  0
   15.9171   -5.9921   10.0050 C   0  0  0  0  0  0  0  0  0  0  0  0
   15.3038   -6.9160   11.0151 C   0  0  0  0  0  0  0  0  0  0  0  0
   16.3534   -7.4821   11.8573 N   0  3  0  0  0  0  0  0  0  0  0  0
   13.1126   -5.0654    5.5011 H   0  0  0  0  0  0  0  0  0  0  0  0
   13.5579   -5.8251    7.0480 H   0  0  0  0  0  0  0  0  0  0  0  0
   14.7422   -5.7465    5.7215 H   0  0  0  0  0  0  0  0  0  0  0  0
   13.9642   -2.3054    5.4592 H   0  0  0  0  0  0  0  0  0  0  0  0
   15.6464   -2.5325    5.7827 H   0  0  0  0  0  0  0  0  0  0  0  0
   15.8063   -3.3644    3.7396 H   0  0  0  0  0  0  0  0  0  0  0  0
   15.9574   -5.5924    4.8413 H   0  0  0  0  0  0  0  0  0  0  0  0
   14.2186   -5.7837    4.7374 H   0  0  0  0  0  0  0  0  0  0  0  0
   16.1824   -5.6023    2.4292 H   0  0  0  0  0  0  0  0  0  0  0  0
   15.2504   -6.9993    2.8747 H   0  0  0  0  0  0  0  0  0  0  0  0
   14.4142   -5.6578    0.8660 H   0  0  0  0  0  0  0  0  0  0  0  0
   12.3696   -5.7939    3.1206 H   0  0  0  0  0  0  0  0  0  0  0  0
   13.5731   -7.6058    0.0429 H   0  0  0  0  0  0  0  0  0  0  0  0
   13.7135  -10.0635   -0.0957 H   0  0  0  0  0  0  0  0  0  0  0  0
   12.9663  -11.4447    1.8125 H   0  0  0  0  0  0  0  0  0  0  0  0
   12.0731  -10.3767    3.8503 H   0  0  0  0  0  0  0  0  0  0  0  0
   11.9367   -7.9121    4.0023 H   0  0  0  0  0  0  0  0  0  0  0  0
   10.9629   -6.1171    0.9159 H   0  0  0  0  0  0  0  0  0  0  0  0
    9.9574   -4.3554   -0.3440 H   0  0  0  0  0  0  0  0  0  0  0  0
   10.0263   -2.0526   -1.1952 H   0  0  0  0  0  0  0  0  0  0  0  0
   13.6706   -1.3642    0.9426 H   0  0  0  0  0  0  0  0  0  0  0  0
   14.9395   -3.4278    1.6031 H   0  0  0  0  0  0  0  0  0  0  0  0
   14.1288   -4.7959    9.6664 H   0  0  0  0  0  0  0  0  0  0  0  0
   14.3347   -6.1489    8.5436 H   0  0  0  0  0  0  0  0  0  0  0  0
   16.6439   -6.5608    9.4235 H   0  0  0  0  0  0  0  0  0  0  0  0
   16.4631   -5.2166   10.5437 H   0  0  0  0  0  0  0  0  0  0  0  0
   14.6002   -6.3607   11.6353 H   0  0  0  0  0  0  0  0  0  0  0  0
   14.7780   -7.7200   10.5000 H   0  0  0  0  0  0  0  0  0  0  0  0
   15.9405   -8.1042   12.5374 H   0  0  0  0  0  0  0  0  0  0  0  0
   16.8406   -6.7371   12.3345 H   0  0  0  0  0  0  0  0  0  0  0  0
   17.0054   -7.9967   11.2826 H   0  0  0  0  0  0  0  0  0  0  0  0
  1  2  1  0  0  0  0
  1 35  1  0  0  0  0
  1 36  1  0  0  0  0
  1 37  1  0  0  0  0
  2  3  1  0  0  0  0
  2 28  1  0  0  0  0
  3  4  1  0  0  0  0
  3 38  1  0  0  0  0
  3 39  1  0  0  0  0
  4  5  1  0  0  0  0
  4 27  1  0  0  0  0
  4 40  1  6  0  0  0
  5  6  1  0  0  0  0
  5 41  1  0  0  0  0
  5 42  1  0  0  0  0
  6  7  1  0  0  0  0
  6 43  1  0  0  0  0
  6 44  1  0  0  0  0
  7  8  1  0  0  0  0
  7 26  1  0  0  0  0
  7 45  1  6  0  0  0
  8  9  1  0  0  0  0
  8 15  1  0  0  0  0
  8 46  1  1  0  0  0
  9 10  2  0  0  0  0
  9 14  1  0  0  0  0
 10 11  1  0  0  0  0
 10 47  1  0  0  0  0
 11 12  2  0  0  0  0
 11 48  1  0  0  0  0
 12 13  1  0  0  0  0
 12 49  1  0  0  0  0
 13 14  2  0  0  0  0
 13 50  1  0  0  0  0
 14 51  1  0  0  0  0
 15 16  1  0  0  0  0
 15 52  1  0  0  0  0
 16 17  2  0  0  0  0
 16 25  1  0  0  0  0
 17 18  1  0  0  0  0
 17 53  1  0  0  0  0
 18 19  2  0  0  0  0
 18 54  1  0  0  0  0
 19 20  1  0  0  0  0
 19 24  1  0  0  0  0
 20 21  1  0  0  0  0
 20 22  1  0  0  0  0
 20 23  1  0  0  0  0
 24 25  2  0  0  0  0
 24 55  1  0  0  0  0
 25 26  1  0  0  0  0
 26 27  1  0  0  0  0
 26 56  1  6  0  0  0
 28 29  2  0  0  0  0
 28 30  2  0  0  0  0
 28 31  1  0  0  0  0
 31 32  1  0  0  0  0
 31 57  1  0  0  0  0
 31 58  1  0  0  0  0
 32 33  1  0  0  0  0
 32 59  1  0  0  0  0
 32 60  1  0  0  0  0
 33 34  1  0  0  0  0
 33 61  1  0  0  0  0
 33 62  1  0  0  0  0
 34 63  1  0  0  0  0
 34 64  1  0  0  0  0
 34 65  1  0  0  0  0
M  CHG  1  34   1
M  END
>  <ID>
CHEMBL1084678

>  <IC50[nM]>
7

$$$$
