@<TRIPOS>MOLECULE
CHEMBL1093088
 51 55 0 0 0
SMALL
GASTEIGER
****
Structure written by MMmdl.
@<TRIPOS>ATOM
      1 F          10.6683    0.3259   -0.9315 F       1  LIG1       -0.1659
      2 C          11.9092   -0.1373   -0.7426 C.3     1  LIG1        0.4174
      3 F          12.5572    0.6970    0.0708 F       1  LIG1       -0.1659
      4 F          12.5317   -0.1562   -1.9180 F       1  LIG1       -0.1659
      5 C          11.8546   -1.5518   -0.1871 C.ar    1  LIG1        0.0553
      6 C          10.8042   -2.4028   -0.5323 C.ar    1  LIG1       -0.0484
      7 C          10.7730   -3.7099   -0.0542 C.ar    1  LIG1       -0.0400
      8 C          11.8144   -4.1935    0.7396 C.ar    1  LIG1        0.0333
      9 C          12.8923   -3.3560    1.0946 C.ar    1  LIG1        0.0028
     10 C          12.8665   -2.0258    0.6545 C.ar    1  LIG1       -0.0427
     11 C          14.0494   -3.8568    1.9562 C.3     1  LIG1        0.0905
     12 O          13.8553   -3.4173    3.2710 O.3     1  LIG1       -0.3665
     13 C          14.8976   -3.7605    4.1929 C.3     1  LIG1        0.0790
     14 C          14.6578   -3.1005    5.5680 C.3     1  LIG1        0.0694
     15 N          13.2465   -2.9226    5.9121 N.ar    1  LIG1       -0.2495
     16 C          12.6204   -3.1518    7.1038 C.ar    1  LIG1        0.1143
     17 N          11.3473   -2.8639    7.0012 N.ar    1  LIG1       -0.2228
     18 C          11.2559   -2.4452    5.7470 C.ar    1  LIG1        0.1379
     19 N          12.3327   -2.4354    5.0401 N.ar    1  LIG1       -0.1583
     20 C          15.0684   -5.3101    4.2439 C.3     1  LIG1       -0.0244
     21 C          15.2209   -5.9171    2.8316 C.3     1  LIG1       -0.0431
     22 C          14.1192   -5.4200    1.8687 C.3     1  LIG1        0.0120
     23 C          12.7212   -6.0707    2.1169 C.3     1  LIG1        0.0514
     24 C          12.7592   -7.5954    2.0346 C.ar    1  LIG1       -0.0269
     25 C          12.3228   -8.3777    3.1055 C.ar    1  LIG1       -0.0568
     26 C          12.4048   -9.7653    3.0253 C.ar    1  LIG1       -0.0614
     27 C          12.9049  -10.3677    1.8739 C.ar    1  LIG1       -0.0617
     28 C          13.3264   -9.5938    0.7972 C.ar    1  LIG1       -0.0614
     29 C          13.2517   -8.2084    0.8785 C.ar    1  LIG1       -0.0568
     30 N          11.7331   -5.5251    1.1808 N.pl3   1  LIG1       -0.3364
     31 H          10.0213   -2.0601   -1.1960 H       1  LIG1        0.0624
     32 H           9.9490   -4.3496   -0.3314 H       1  LIG1        0.0636
     33 H          13.6823   -1.3752    0.9329 H       1  LIG1        0.0627
     34 H          14.9905   -3.4672    1.5172 H       1  LIG1        0.0650
     35 H          15.8414   -3.3531    3.8085 H       1  LIG1        0.0614
     36 H          15.1289   -3.6931    6.3577 H       1  LIG1        0.0535
     37 H          15.1239   -2.1134    5.5876 H       1  LIG1        0.0535
     38 H          13.1580   -3.5076    7.9813 H       1  LIG1        0.1044
     39 H          10.2992   -2.1530    5.3209 H       1  LIG1        0.1065
     40 H          15.9422   -5.5750    4.8418 H       1  LIG1        0.0291
     41 H          14.2208   -5.7508    4.7597 H       1  LIG1        0.0291
     42 H          16.1877   -5.6158    2.4310 H       1  LIG1        0.0270
     43 H          15.2476   -7.0045    2.9003 H       1  LIG1        0.0270
     44 H          14.4309   -5.6815    0.8489 H       1  LIG1        0.0350
     45 H          12.3740   -5.8074    3.1180 H       1  LIG1        0.0551
     46 H          11.9307   -7.9163    4.0008 H       1  LIG1        0.0621
     47 H          12.0690  -10.3755    3.8528 H       1  LIG1        0.0618
     48 H          12.9609  -11.4432    1.8091 H       1  LIG1        0.0618
     49 H          13.6968  -10.0592   -0.1007 H       1  LIG1        0.0618
     50 H          13.5613   -7.6079    0.0375 H       1  LIG1        0.0621
     51 H          10.8982   -6.0840    1.0444 H       1  LIG1        0.1467
@<TRIPOS>BOND
     1     1     2    1
     2     2     3    1
     3     2     4    1
     4     2     5    1
     5     5     6   ar
     6     5    10   ar
     7     6     7   ar
     8     6    31    1
     9     7     8   ar
    10     7    32    1
    11     8     9   ar
    12     8    30    1
    13     9    10   ar
    14     9    11    1
    15    10    33    1
    16    11    12    1
    17    11    22    1
    18    11    34    1
    19    12    13    1
    20    13    14    1
    21    13    20    1
    22    13    35    1
    23    14    15    1
    24    14    36    1
    25    14    37    1
    26    15    16   ar
    27    15    19   ar
    28    16    17   ar
    29    16    38    1
    30    17    18   ar
    31    18    19   ar
    32    18    39    1
    33    20    21    1
    34    20    40    1
    35    20    41    1
    36    21    22    1
    37    21    42    1
    38    21    43    1
    39    22    23    1
    40    22    44    1
    41    23    24    1
    42    23    30    1
    43    23    45    1
    44    24    25   ar
    45    24    29   ar
    46    25    26   ar
    47    25    46    1
    48    26    27   ar
    49    26    47    1
    50    27    28   ar
    51    27    48    1
    52    28    29   ar
    53    28    49    1
    54    29    50    1
    55    30    51    1
