@<TRIPOS>MOLECULE
CHEMBL1085692
 64 67 0 0 0
SMALL
GASTEIGER
****
Structure written by MMmdl.
@<TRIPOS>ATOM
      1 C          14.6834   -7.3008   11.7225 C.3     1  LIG1       -0.0433
      2 N          15.2774   -5.9316   11.3172 N.4     1  LIG1        0.2309
      3 C          15.9300   -5.2530   12.5352 C.3     1  LIG1       -0.0433
      4 C          16.2923   -6.0375   10.1526 C.3     1  LIG1       -0.0320
      5 C          15.5993   -6.5692    8.8893 C.3     1  LIG1       -0.0043
      6 C          14.5542   -5.5430    8.4001 C.3     1  LIG1        0.0287
      7 C          15.1836   -4.5449    7.4457 C.2     1  LIG1        0.2133
      8 O          16.3859   -4.3594    7.3886 O.2     1  LIG1       -0.2758
      9 N          14.2892   -3.9272    6.6441 N.am    1  LIG1       -0.3128
     10 C          14.6882   -3.0589    5.5552 C.3     1  LIG1        0.0379
     11 C          14.9040   -3.7684    4.1917 C.3     1  LIG1        0.0749
     12 C          15.0828   -5.3154    4.2390 C.3     1  LIG1       -0.0247
     13 C          15.2204   -5.9077    2.8305 C.3     1  LIG1       -0.0431
     14 C          14.1059   -5.4133    1.8829 C.3     1  LIG1        0.0121
     15 C          12.7128   -6.0662    2.1226 C.3     1  LIG1        0.0514
     16 C          12.7576   -7.5912    2.0355 C.ar    1  LIG1       -0.0269
     17 C          12.3242   -8.3770    3.1068 C.ar    1  LIG1       -0.0568
     18 C          12.4016   -9.7648    3.0219 C.ar    1  LIG1       -0.0614
     19 C          12.9059  -10.3676    1.8713 C.ar    1  LIG1       -0.0617
     20 C          13.3272   -9.5913    0.7967 C.ar    1  LIG1       -0.0614
     21 C          13.2504   -8.2070    0.8802 C.ar    1  LIG1       -0.0568
     22 N          11.7486   -5.5145    1.1710 N.pl3   1  LIG1       -0.3342
     23 C          11.8124   -4.1554    0.7867 C.ar    1  LIG1        0.0690
     24 C          10.7992   -3.6430   -0.0245 C.ar    1  LIG1        0.1455
     25 F           9.7452   -4.3940   -0.3088 F       1  LIG1       -0.2035
     26 C          10.8386   -2.3622   -0.5273 C.ar    1  LIG1       -0.0106
     27 C          11.8857   -1.5286   -0.1663 C.ar    1  LIG1        0.0210
     28 BR         11.9570    0.2431   -0.8266 Br      1  LIG1       -0.0502
     29 C          12.8902   -2.0069    0.6804 C.ar    1  LIG1       -0.0402
     30 C          12.8881   -3.3301    1.1337 C.ar    1  LIG1        0.0061
     31 C          14.0302   -3.8699    1.9787 C.3     1  LIG1        0.0906
     32 O          13.8099   -3.4603    3.3270 O.3     1  LIG1       -0.3668
     33 H          15.5394   -7.9357   11.9678 H       1  LIG1        0.0777
     34 H          14.1006   -7.7185   10.9004 H       1  LIG1        0.0777
     35 H          14.0029   -7.1559   12.5615 H       1  LIG1        0.0777
     36 H          16.7606   -5.9038   12.8225 H       1  LIG1        0.0777
     37 H          15.1664   -5.1905   13.3147 H       1  LIG1        0.0777
     38 H          16.2746   -4.2620   12.2253 H       1  LIG1        0.0777
     39 H          16.6811   -5.0218    9.9915 H       1  LIG1        0.0814
     40 H          17.1086   -6.6770   10.4988 H       1  LIG1        0.0814
     41 H          16.3506   -6.8049    8.1366 H       1  LIG1        0.0321
     42 H          15.1239   -7.5412    9.0226 H       1  LIG1        0.0321
     43 H          13.7453   -6.0592    7.8902 H       1  LIG1        0.0360
     44 H          14.0786   -4.9761    9.2045 H       1  LIG1        0.0360
     45 H          13.3183   -4.1244    6.7845 H       1  LIG1        0.1488
     46 H          13.9105   -2.3007    5.4765 H       1  LIG1        0.0487
     47 H          15.5982   -2.5169    5.8278 H       1  LIG1        0.0487
     48 H          15.8080   -3.3177    3.7778 H       1  LIG1        0.0612
     49 H          15.9629   -5.5825    4.8242 H       1  LIG1        0.0291
     50 H          14.2348   -5.7823    4.7443 H       1  LIG1        0.0291
     51 H          16.1869   -5.6111    2.4180 H       1  LIG1        0.0270
     52 H          15.2476   -6.9947    2.8898 H       1  LIG1        0.0270
     53 H          14.4209   -5.6382    0.8628 H       1  LIG1        0.0350
     54 H          12.3657   -5.8150    3.1282 H       1  LIG1        0.0551
     55 H          11.9332   -7.9157    4.0028 H       1  LIG1        0.0621
     56 H          12.0690  -10.3741    3.8509 H       1  LIG1        0.0618
     57 H          12.9502  -11.4447    1.8040 H       1  LIG1        0.0618
     58 H          13.6941  -10.0604   -0.1045 H       1  LIG1        0.0618
     59 H          13.5641   -7.6077    0.0384 H       1  LIG1        0.0621
     60 H          10.9203   -6.0734    1.0265 H       1  LIG1        0.1468
     61 H          10.0428   -2.0189   -1.1799 H       1  LIG1        0.0658
     62 H          13.7007   -1.3465    0.9386 H       1  LIG1        0.0633
     63 H          14.9571   -3.4356    1.6023 H       1  LIG1        0.0650
     64 H          14.5055   -5.3295   11.0089 H       1  LIG1        0.2028
@<TRIPOS>BOND
     1     1     2    1
     2     1    33    1
     3     1    34    1
     4     1    35    1
     5     2     3    1
     6     2     4    1
     7     2    64    1
     8     3    36    1
     9     3    37    1
    10     3    38    1
    11     4     5    1
    12     4    39    1
    13     4    40    1
    14     5     6    1
    15     5    41    1
    16     5    42    1
    17     6     7    1
    18     6    43    1
    19     6    44    1
    20     7     8    2
    21     7     9   am
    22     9    10    1
    23     9    45    1
    24    10    11    1
    25    10    46    1
    26    10    47    1
    27    11    12    1
    28    11    32    1
    29    11    48    1
    30    12    13    1
    31    12    49    1
    32    12    50    1
    33    13    14    1
    34    13    51    1
    35    13    52    1
    36    14    15    1
    37    14    31    1
    38    14    53    1
    39    15    16    1
    40    15    22    1
    41    15    54    1
    42    16    17   ar
    43    16    21   ar
    44    17    18   ar
    45    17    55    1
    46    18    19   ar
    47    18    56    1
    48    19    20   ar
    49    19    57    1
    50    20    21   ar
    51    20    58    1
    52    21    59    1
    53    22    23    1
    54    22    60    1
    55    23    24   ar
    56    23    30   ar
    57    24    25    1
    58    24    26   ar
    59    26    27   ar
    60    26    61    1
    61    27    28    1
    62    27    29   ar
    63    29    30   ar
    64    29    62    1
    65    30    31    1
    66    31    32    1
    67    31    63    1
