CHEMBL1078691
 OpenBabel02152110423D
Structure written by MMmdl.
 52 55  0  0  1  0  0  0  0  0999 V2000
   10.5284    0.3945   -0.7005 C   0  0  0  0  0  0  0  0  0  0  0  0
   11.9546   -0.1757   -0.7407 C   0  0  0  0  0  0  0  0  0  0  0  0
   12.4165   -0.1649   -2.1966 C   0  0  0  0  0  0  0  0  0  0  0  0
   12.8844    0.7521    0.0824 C   0  0  0  0  0  0  0  0  0  0  0  0
   11.8943   -1.5960   -0.1952 C   0  0  0  0  0  0  0  0  0  0  0  0
   10.8356   -2.4428   -0.5504 C   0  0  0  0  0  0  0  0  0  0  0  0
   10.7698   -3.7406   -0.0534 C   0  0  0  0  0  0  0  0  0  0  0  0
   11.7883   -4.2157    0.7713 C   0  0  0  0  0  0  0  0  0  0  0  0
   12.8596   -3.3846    1.1392 C   0  0  0  0  0  0  0  0  0  0  0  0
   12.8744   -2.0732    0.6730 C   0  0  0  0  0  0  0  0  0  0  0  0
   14.0135   -3.8879    1.9819 C   0  0  1  0  0  0  0  0  0  0  0  0
   13.8030   -3.4515    3.3286 O   0  0  0  0  0  0  0  0  0  0  0  0
   14.8803   -3.7868    4.2124 C   0  0  0  0  0  0  0  0  0  0  0  0
   15.0742   -5.3209    4.2479 C   0  0  0  0  0  0  0  0  0  0  0  0
   15.2231   -5.9051    2.8405 C   0  0  0  0  0  0  0  0  0  0  0  0
   14.1110   -5.4142    1.8892 C   0  0  1  0  0  0  0  0  0  0  0  0
   12.7111   -6.0630    2.1315 C   0  0  2  0  0  0  0  0  0  0  0  0
   12.7590   -7.5693    2.0352 C   0  0  0  0  0  0  0  0  0  0  0  0
   13.2481   -8.1881    0.8802 C   0  0  0  0  0  0  0  0  0  0  0  0
   13.3233   -9.5851    0.8265 C   0  0  0  0  0  0  0  0  0  0  0  0
   12.9107  -10.3576    1.9488 C   0  0  0  0  0  0  0  0  0  0  0  0
   12.9634  -11.6728    2.0898 O   0  0  0  0  0  0  0  0  0  0  0  0
   12.3943   -9.6942    3.0615 C   0  0  0  0  0  0  0  0  0  0  0  0
   12.3151   -8.3134    3.1219 C   0  0  0  0  0  0  0  0  0  0  0  0
   11.7105   -5.5421    1.2053 N   0  0  0  0  0  0  0  0  0  0  0  0
   10.5280    1.4627   -0.8455 H   0  0  0  0  0  0  0  0  0  0  0  0
   10.1643    0.2463    0.2887 H   0  0  0  0  0  0  0  0  0  0  0  0
    9.8005   -0.0342   -1.3977 H   0  0  0  0  0  0  0  0  0  0  0  0
   11.5237   -0.4812   -2.7197 H   0  0  0  0  0  0  0  0  0  0  0  0
   13.2176   -0.8646   -2.4082 H   0  0  0  0  0  0  0  0  0  0  0  0
   12.7087    0.8049   -2.5906 H   0  0  0  0  0  0  0  0  0  0  0  0
   12.9374    1.7755   -0.3054 H   0  0  0  0  0  0  0  0  0  0  0  0
   13.8795    0.3348    0.0963 H   0  0  0  0  0  0  0  0  0  0  0  0
   12.5806    0.8015    1.1253 H   0  0  0  0  0  0  0  0  0  0  0  0
   10.0396   -2.1260   -1.1991 H   0  0  0  0  0  0  0  0  0  0  0  0
    9.9353   -4.3746   -0.3205 H   0  0  0  0  0  0  0  0  0  0  0  0
   13.7039   -1.4652    0.9955 H   0  0  0  0  0  0  0  0  0  0  0  0
   14.9427   -3.4482    1.6054 H   0  0  0  0  0  0  0  0  0  0  0  0
   15.7960   -3.3137    3.8697 H   0  0  0  0  0  0  0  0  0  0  0  0
   14.6678   -3.4019    5.2085 H   0  0  0  0  0  0  0  0  0  0  0  0
   15.9512   -5.5698    4.8485 H   0  0  0  0  0  0  0  0  0  0  0  0
   14.2195   -5.7746    4.7481 H   0  0  0  0  0  0  0  0  0  0  0  0
   16.1903   -5.6151    2.4214 H   0  0  0  0  0  0  0  0  0  0  0  0
   15.2455   -6.9935    2.8950 H   0  0  0  0  0  0  0  0  0  0  0  0
   14.4209   -5.6374    0.8659 H   0  0  0  0  0  0  0  0  0  0  0  0
   12.3698   -5.8077    3.1400 H   0  0  0  0  0  0  0  0  0  0  0  0
   13.5669   -7.5944    0.0360 H   0  0  0  0  0  0  0  0  0  0  0  0
   13.6985  -10.0555   -0.0752 H   0  0  0  0  0  0  0  0  0  0  0  0
   13.1844  -12.1816    1.2794 H   0  0  0  0  0  0  0  0  0  0  0  0
   12.0817  -10.3093    3.8845 H   0  0  0  0  0  0  0  0  0  0  0  0
   11.9231   -7.8651    4.0186 H   0  0  0  0  0  0  0  0  0  0  0  0
   10.8078   -5.9877    1.2726 H   0  0  0  0  0  0  0  0  0  0  0  0
  1  2  1  0  0  0  0
  1 26  1  0  0  0  0
  1 27  1  0  0  0  0
  1 28  1  0  0  0  0
  2  3  1  0  0  0  0
  2  4  1  0  0  0  0
  2  5  1  0  0  0  0
  3 29  1  0  0  0  0
  3 30  1  0  0  0  0
  3 31  1  0  0  0  0
  4 32  1  0  0  0  0
  4 33  1  0  0  0  0
  4 34  1  0  0  0  0
  5  6  2  0  0  0  0
  5 10  1  0  0  0  0
  6  7  1  0  0  0  0
  6 35  1  0  0  0  0
  7  8  2  0  0  0  0
  7 36  1  0  0  0  0
  8  9  1  0  0  0  0
  8 25  1  0  0  0  0
  9 10  2  0  0  0  0
  9 11  1  0  0  0  0
 10 37  1  0  0  0  0
 11 12  1  0  0  0  0
 11 16  1  0  0  0  0
 11 38  1  6  0  0  0
 12 13  1  0  0  0  0
 13 14  1  0  0  0  0
 13 39  1  0  0  0  0
 13 40  1  0  0  0  0
 14 15  1  0  0  0  0
 14 41  1  0  0  0  0
 14 42  1  0  0  0  0
 15 16  1  0  0  0  0
 15 43  1  0  0  0  0
 15 44  1  0  0  0  0
 16 17  1  0  0  0  0
 16 45  1  6  0  0  0
 17 18  1  0  0  0  0
 17 25  1  0  0  0  0
 17 46  1  1  0  0  0
 18 19  2  0  0  0  0
 18 24  1  0  0  0  0
 19 20  1  0  0  0  0
 19 47  1  0  0  0  0
 20 21  2  0  0  0  0
 20 48  1  0  0  0  0
 21 22  1  0  0  0  0
 21 23  1  0  0  0  0
 22 49  1  0  0  0  0
 23 24  2  0  0  0  0
 23 50  1  0  0  0  0
 24 51  1  0  0  0  0
 25 52  1  0  0  0  0
M  END
>  <ID>
CHEMBL1078691

>  <IC50[nM]>
34

$$$$
