CHEMBL1084431
 OpenBabel02152110423D
Structure written by MMmdl.
 71 75  0  0  1  0  0  0  0  0999 V2000
   20.4061   -3.7657    7.9254 C   0  0  0  0  0  0  0  0  0  0  0  0
   18.9124   -3.9931    7.7765 C   0  0  0  0  0  0  0  0  0  0  0  0
   18.0258   -2.9250    7.9026 C   0  0  0  0  0  0  0  0  0  0  0  0
   16.6577   -3.1320    7.7478 C   0  0  0  0  0  0  0  0  0  0  0  0
   16.1648   -4.4081    7.4449 C   0  0  0  0  0  0  0  0  0  0  0  0
   14.6878   -4.6643    7.2329 C   0  0  0  0  0  0  0  0  0  0  0  0
   14.1939   -5.6634    7.7631 O   0  0  0  0  0  0  0  0  0  0  0  0
   13.9487   -3.8243    6.4460 N   0  0  0  0  0  0  0  0  0  0  0  0
   12.4795   -4.0242    6.4012 C   0  0  0  0  0  0  0  0  0  0  0  0
   11.6019   -2.8223    6.0038 C   0  0  0  0  0  0  0  0  0  0  0  0
   11.3321   -2.8831    4.4934 N   0  3  0  0  0  0  0  0  0  0  0  0
   14.5613   -2.9978    5.3800 C   0  0  0  0  0  0  0  0  0  0  0  0
   14.7961   -3.6692    4.0001 C   0  0  1  0  0  0  0  0  0  0  0  0
   15.0811   -5.1931    4.0309 C   0  0  0  0  0  0  0  0  0  0  0  0
   15.2403   -5.7746    2.6172 C   0  0  0  0  0  0  0  0  0  0  0  0
   14.1077   -5.3260    1.6628 C   0  0  1  0  0  0  0  0  0  0  0  0
   12.7413   -6.0318    1.9021 C   0  0  2  0  0  0  0  0  0  0  0  0
   12.8422   -7.5568    1.8513 C   0  0  0  0  0  0  0  0  0  0  0  0
   12.4533   -8.3229    2.9526 C   0  0  0  0  0  0  0  0  0  0  0  0
   12.5253   -9.7125    2.8926 C   0  0  0  0  0  0  0  0  0  0  0  0
   12.9477  -10.3381    1.7271 C   0  0  0  0  0  0  0  0  0  0  0  0
   13.3353   -9.5811    0.6254 C   0  0  0  0  0  0  0  0  0  0  0  0
   13.3108   -8.1934    0.6978 C   0  0  0  0  0  0  0  0  0  0  0  0
   11.7319   -5.5273    0.9660 N   0  0  0  0  0  0  0  0  0  0  0  0
   11.7370   -4.1806    0.5580 C   0  0  0  0  0  0  0  0  0  0  0  0
   10.6892   -3.7238   -0.2418 C   0  0  0  0  0  0  0  0  0  0  0  0
   10.6688   -2.4058   -0.6876 C   0  0  0  0  0  0  0  0  0  0  0  0
   11.6907   -1.5255   -0.3218 C   0  0  0  0  0  0  0  0  0  0  0  0
   11.7117   -0.0976   -0.8567 C   0  0  0  0  0  0  0  0  0  0  0  0
   12.2908    0.7357    0.0080 F   0  0  0  0  0  0  0  0  0  0  0  0
   12.4102   -0.0772   -1.9917 F   0  0  0  0  0  0  0  0  0  0  0  0
   10.4766    0.3334   -1.1054 F   0  0  0  0  0  0  0  0  0  0  0  0
   12.7176   -1.9787    0.5071 C   0  0  0  0  0  0  0  0  0  0  0  0
   12.7770   -3.3077    0.9323 C   0  0  0  0  0  0  0  0  0  0  0  0
   13.9477   -3.7906    1.7717 C   0  0  1  0  0  0  0  0  0  0  0  0
   13.6969   -3.4009    3.1267 O   0  0  0  0  0  0  0  0  0  0  0  0
   17.0605   -5.4838    7.3765 C   0  0  0  0  0  0  0  0  0  0  0  0
   18.4268   -5.2802    7.5326 C   0  0  0  0  0  0  0  0  0  0  0  0
   20.8966   -4.6385    8.3533 H   0  0  0  0  0  0  0  0  0  0  0  0
   20.6157   -2.9273    8.5942 H   0  0  0  0  0  0  0  0  0  0  0  0
   20.8541   -3.5552    6.9542 H   0  0  0  0  0  0  0  0  0  0  0  0
   18.3892   -1.9293    8.1145 H   0  0  0  0  0  0  0  0  0  0  0  0
   15.9889   -2.2922    7.8543 H   0  0  0  0  0  0  0  0  0  0  0  0
   12.2659   -4.8647    5.7368 H   0  0  0  0  0  0  0  0  0  0  0  0
   12.1472   -4.3462    7.3894 H   0  0  0  0  0  0  0  0  0  0  0  0
   10.6031   -2.8770    6.4480 H   0  0  0  0  0  0  0  0  0  0  0  0
   12.0431   -1.8456    6.2206 H   0  0  0  0  0  0  0  0  0  0  0  0
   10.7298   -2.1320    4.1414 H   0  0  0  0  0  0  0  0  0  0  0  0
   10.8553   -3.7530    4.2874 H   0  0  0  0  0  0  0  0  0  0  0  0
   13.9811   -2.0922    5.2324 H   0  0  0  0  0  0  0  0  0  0  0  0
   15.5298   -2.6261    5.6945 H   0  0  0  0  0  0  0  0  0  0  0  0
   15.6700   -3.1564    3.5927 H   0  0  0  0  0  0  0  0  0  0  0  0
   15.9914   -5.3897    4.6001 H   0  0  0  0  0  0  0  0  0  0  0  0
   14.2785   -5.7188    4.5518 H   0  0  0  0  0  0  0  0  0  0  0  0
   16.1963   -5.4430    2.2066 H   0  0  0  0  0  0  0  0  0  0  0  0
   15.3123   -6.8623    2.6711 H   0  0  0  0  0  0  0  0  0  0  0  0
   14.4375   -5.5427    0.6447 H   0  0  0  0  0  0  0  0  0  0  0  0
   12.3821   -5.7716    2.9017 H   0  0  0  0  0  0  0  0  0  0  0  0
   12.0964   -7.8495    3.8566 H   0  0  0  0  0  0  0  0  0  0  0  0
   12.2295  -10.3081    3.7462 H   0  0  0  0  0  0  0  0  0  0  0  0
   12.9787  -11.4176    1.6762 H   0  0  0  0  0  0  0  0  0  0  0  0
   13.6722  -10.0595   -0.2817 H   0  0  0  0  0  0  0  0  0  0  0  0
   13.6137   -7.6139   -0.1606 H   0  0  0  0  0  0  0  0  0  0  0  0
   10.8780   -6.0664    0.9477 H   0  0  0  0  0  0  0  0  0  0  0  0
    9.8977   -4.3963   -0.5354 H   0  0  0  0  0  0  0  0  0  0  0  0
    9.8632   -2.0699   -1.3224 H   0  0  0  0  0  0  0  0  0  0  0  0
   13.5136   -1.3007    0.7868 H   0  0  0  0  0  0  0  0  0  0  0  0
   14.8593   -3.3099    1.4053 H   0  0  0  0  0  0  0  0  0  0  0  0
   16.7009   -6.4861    7.1830 H   0  0  0  0  0  0  0  0  0  0  0  0
   19.1055   -6.1201    7.4605 H   0  0  0  0  0  0  0  0  0  0  0  0
   12.1955   -2.8872    3.9543 H   0  0  0  0  0  0  0  0  0  0  0  0
  1  2  1  0  0  0  0
  1 39  1  0  0  0  0
  1 40  1  0  0  0  0
  1 41  1  0  0  0  0
  2  3  2  0  0  0  0
  2 38  1  0  0  0  0
  3  4  1  0  0  0  0
  3 42  1  0  0  0  0
  4  5  2  0  0  0  0
  4 43  1  0  0  0  0
  5  6  1  0  0  0  0
  5 37  1  0  0  0  0
  6  7  2  0  0  0  0
  6  8  1  0  0  0  0
  8  9  1  0  0  0  0
  8 12  1  0  0  0  0
  9 10  1  0  0  0  0
  9 44  1  0  0  0  0
  9 45  1  0  0  0  0
 10 11  1  0  0  0  0
 10 46  1  0  0  0  0
 10 47  1  0  0  0  0
 11 48  1  0  0  0  0
 11 49  1  0  0  0  0
 11 71  1  0  0  0  0
 12 13  1  0  0  0  0
 12 50  1  0  0  0  0
 12 51  1  0  0  0  0
 13 14  1  0  0  0  0
 13 36  1  0  0  0  0
 13 52  1  6  0  0  0
 14 15  1  0  0  0  0
 14 53  1  0  0  0  0
 14 54  1  0  0  0  0
 15 16  1  0  0  0  0
 15 55  1  0  0  0  0
 15 56  1  0  0  0  0
 16 17  1  0  0  0  0
 16 35  1  0  0  0  0
 16 57  1  6  0  0  0
 17 18  1  0  0  0  0
 17 24  1  0  0  0  0
 17 58  1  1  0  0  0
 18 19  2  0  0  0  0
 18 23  1  0  0  0  0
 19 20  1  0  0  0  0
 19 59  1  0  0  0  0
 20 21  2  0  0  0  0
 20 60  1  0  0  0  0
 21 22  1  0  0  0  0
 21 61  1  0  0  0  0
 22 23  2  0  0  0  0
 22 62  1  0  0  0  0
 23 63  1  0  0  0  0
 24 25  1  0  0  0  0
 24 64  1  0  0  0  0
 25 26  2  0  0  0  0
 25 34  1  0  0  0  0
 26 27  1  0  0  0  0
 26 65  1  0  0  0  0
 27 28  2  0  0  0  0
 27 66  1  0  0  0  0
 28 29  1  0  0  0  0
 28 33  1  0  0  0  0
 29 30  1  0  0  0  0
 29 31  1  0  0  0  0
 29 32  1  0  0  0  0
 33 34  2  0  0  0  0
 33 67  1  0  0  0  0
 34 35  1  0  0  0  0
 35 36  1  0  0  0  0
 35 68  1  6  0  0  0
 37 38  2  0  0  0  0
 37 69  1  0  0  0  0
 38 70  1  0  0  0  0
M  CHG  1  11   1
M  END
>  <ID>
CHEMBL1084431

>  <IC50[nM]>
65

$$$$
