CHEMBL1093087
 OpenBabel02152110423D
Structure written by MMmdl.
 66 70  0  0  1  0  0  0  0  0999 V2000
   17.0595   -4.3278    9.3015 N   0  3  0  0  0  0  0  0  0  0  0  0
   16.4111   -3.6781    8.0642 C   0  0  0  0  0  0  0  0  0  0  0  0
   15.4283   -4.6540    7.4209 C   0  0  0  0  0  0  0  0  0  0  0  0
   14.3173   -3.9632    6.7098 N   0  0  0  0  0  0  0  0  0  0  0  0
   14.6711   -3.1205    5.5672 C   0  0  0  0  0  0  0  0  0  0  0  0
   14.8777   -3.7953    4.1876 C   0  0  1  0  0  0  0  0  0  0  0  0
   15.1008   -5.3295    4.2145 C   0  0  0  0  0  0  0  0  0  0  0  0
   15.2228   -5.9222    2.8121 C   0  0  0  0  0  0  0  0  0  0  0  0
   14.1174   -5.4218    1.8557 C   0  0  1  0  0  0  0  0  0  0  0  0
   12.7216   -6.0747    2.0945 C   0  0  2  0  0  0  0  0  0  0  0  0
   12.7729   -7.6008    2.0278 C   0  0  0  0  0  0  0  0  0  0  0  0
   13.2706   -8.2220    0.8801 C   0  0  0  0  0  0  0  0  0  0  0  0
   13.3326   -9.6058    0.8050 C   0  0  0  0  0  0  0  0  0  0  0  0
   12.9181  -10.3802    1.8839 C   0  0  0  0  0  0  0  0  0  0  0  0
   12.4178   -9.7705    3.0309 C   0  0  0  0  0  0  0  0  0  0  0  0
   12.3383   -8.3811    3.1031 C   0  0  0  0  0  0  0  0  0  0  0  0
   11.7413   -5.5300    1.1481 N   0  0  0  0  0  0  0  0  0  0  0  0
   11.8102   -4.1920    0.7296 C   0  0  0  0  0  0  0  0  0  0  0  0
   10.7818   -3.7078   -0.0824 C   0  0  0  0  0  0  0  0  0  0  0  0
   10.8015   -2.3932   -0.5399 C   0  0  0  0  0  0  0  0  0  0  0  0
   11.8482   -1.5380   -0.1822 C   0  0  0  0  0  0  0  0  0  0  0  0
   11.8927   -0.1087   -0.7182 C   0  0  0  0  0  0  0  0  0  0  0  0
   10.6612    0.3848   -0.9020 F   0  0  0  0  0  0  0  0  0  0  0  0
   12.5434    0.7151    0.1022 F   0  0  0  0  0  0  0  0  0  0  0  0
   12.5269   -0.1156   -1.8900 F   0  0  0  0  0  0  0  0  0  0  0  0
   12.8592   -2.0214    0.6553 C   0  0  0  0  0  0  0  0  0  0  0  0
   12.8763   -3.3505    1.0997 C   0  0  0  0  0  0  0  0  0  0  0  0
   14.0264   -3.8788    1.9517 C   0  0  1  0  0  0  0  0  0  0  0  0
   13.7985   -3.4740    3.3022 O   0  0  0  0  0  0  0  0  0  0  0  0
   13.3153   -3.3837    7.5227 C   0  0  0  0  0  0  0  0  0  0  0  0
   13.5260   -3.1620    8.8770 C   0  0  0  0  0  0  0  0  0  0  0  0
   12.6670   -2.3578    9.6181 C   0  0  0  0  0  0  0  0  0  0  0  0
   11.5921   -1.7940    8.9796 C   0  0  0  0  0  0  0  0  0  0  0  0
   11.2437   -2.1161    7.6763 C   0  0  0  0  0  0  0  0  0  0  0  0
   12.1204   -2.9427    6.9433 C   0  0  0  0  0  0  0  0  0  0  0  0
   17.6568   -3.6617    9.7565 H   0  0  0  0  0  0  0  0  0  0  0  0
   17.6101   -5.1312    9.0447 H   0  0  0  0  0  0  0  0  0  0  0  0
   15.9195   -2.7926    8.4434 H   0  0  0  0  0  0  0  0  0  0  0  0
   17.2377   -3.4059    7.4424 H   0  0  0  0  0  0  0  0  0  0  0  0
   15.9313   -5.3216    6.7606 H   0  0  0  0  0  0  0  0  0  0  0  0
   14.9812   -5.2759    8.1921 H   0  0  0  0  0  0  0  0  0  0  0  0
   13.9247   -2.3268    5.4426 H   0  0  0  0  0  0  0  0  0  0  0  0
   15.5691   -2.5567    5.8165 H   0  0  0  0  0  0  0  0  0  0  0  0
   15.7729   -3.3247    3.7794 H   0  0  0  0  0  0  0  0  0  0  0  0
   16.0240   -5.5622    4.7373 H   0  0  0  0  0  0  0  0  0  0  0  0
   14.2903   -5.8199    4.7564 H   0  0  0  0  0  0  0  0  0  0  0  0
   16.1958   -5.6425    2.4082 H   0  0  0  0  0  0  0  0  0  0  0  0
   15.2434   -7.0086    2.8819 H   0  0  0  0  0  0  0  0  0  0  0  0
   14.4469   -5.6561    0.8431 H   0  0  0  0  0  0  0  0  0  0  0  0
   12.3742   -5.8039    3.0944 H   0  0  0  0  0  0  0  0  0  0  0  0
   13.6090   -7.6310    0.0429 H   0  0  0  0  0  0  0  0  0  0  0  0
   13.7259  -10.0642   -0.0889 H   0  0  0  0  0  0  0  0  0  0  0  0
   12.9744  -11.4583    1.8259 H   0  0  0  0  0  0  0  0  0  0  0  0
   12.0836  -10.3775    3.8617 H   0  0  0  0  0  0  0  0  0  0  0  0
   11.9448   -7.9147    3.9942 H   0  0  0  0  0  0  0  0  0  0  0  0
   10.8681   -6.0360    1.1026 H   0  0  0  0  0  0  0  0  0  0  0  0
    9.9645   -4.3552   -0.3654 H   0  0  0  0  0  0  0  0  0  0  0  0
   10.0037   -2.0394   -1.1794 H   0  0  0  0  0  0  0  0  0  0  0  0
   13.6697   -1.3617    0.9363 H   0  0  0  0  0  0  0  0  0  0  0  0
   14.9580   -3.4381    1.5896 H   0  0  0  0  0  0  0  0  0  0  0  0
   14.3767   -3.5863    9.3810 H   0  0  0  0  0  0  0  0  0  0  0  0
   12.8478   -2.1791   10.6617 H   0  0  0  0  0  0  0  0  0  0  0  0
   10.9180   -1.1483    9.5397 H   0  0  0  0  0  0  0  0  0  0  0  0
   10.3539   -1.7242    7.2367 H   0  0  0  0  0  0  0  0  0  0  0  0
   11.8461   -3.2038    5.9297 H   0  0  0  0  0  0  0  0  0  0  0  0
   16.3405   -4.6101    9.9418 H   0  0  0  0  0  0  0  0  0  0  0  0
  1  2  1  0  0  0  0
  1 36  1  0  0  0  0
  1 37  1  0  0  0  0
  1 66  1  0  0  0  0
  2  3  1  0  0  0  0
  2 38  1  0  0  0  0
  2 39  1  0  0  0  0
  3  4  1  0  0  0  0
  3 40  1  0  0  0  0
  3 41  1  0  0  0  0
  4  5  1  0  0  0  0
  4 30  1  0  0  0  0
  5  6  1  0  0  0  0
  5 42  1  0  0  0  0
  5 43  1  0  0  0  0
  6  7  1  0  0  0  0
  6 29  1  0  0  0  0
  6 44  1  6  0  0  0
  7  8  1  0  0  0  0
  7 45  1  0  0  0  0
  7 46  1  0  0  0  0
  8  9  1  0  0  0  0
  8 47  1  0  0  0  0
  8 48  1  0  0  0  0
  9 10  1  0  0  0  0
  9 28  1  0  0  0  0
  9 49  1  6  0  0  0
 10 11  1  0  0  0  0
 10 17  1  0  0  0  0
 10 50  1  1  0  0  0
 11 12  2  0  0  0  0
 11 16  1  0  0  0  0
 12 13  1  0  0  0  0
 12 51  1  0  0  0  0
 13 14  2  0  0  0  0
 13 52  1  0  0  0  0
 14 15  1  0  0  0  0
 14 53  1  0  0  0  0
 15 16  2  0  0  0  0
 15 54  1  0  0  0  0
 16 55  1  0  0  0  0
 17 18  1  0  0  0  0
 17 56  1  0  0  0  0
 18 19  2  0  0  0  0
 18 27  1  0  0  0  0
 19 20  1  0  0  0  0
 19 57  1  0  0  0  0
 20 21  2  0  0  0  0
 20 58  1  0  0  0  0
 21 22  1  0  0  0  0
 21 26  1  0  0  0  0
 22 23  1  0  0  0  0
 22 24  1  0  0  0  0
 22 25  1  0  0  0  0
 26 27  2  0  0  0  0
 26 59  1  0  0  0  0
 27 28  1  0  0  0  0
 28 29  1  0  0  0  0
 28 60  1  6  0  0  0
 30 31  2  0  0  0  0
 30 35  1  0  0  0  0
 31 32  1  0  0  0  0
 31 61  1  0  0  0  0
 32 33  2  0  0  0  0
 32 62  1  0  0  0  0
 33 34  1  0  0  0  0
 33 63  1  0  0  0  0
 34 35  2  0  0  0  0
 34 64  1  0  0  0  0
 35 65  1  0  0  0  0
M  CHG  1   1   1
M  END
>  <ID>
CHEMBL1093087

>  <IC50[nM]>
19

$$$$
