CHEMBL1083517
 OpenBabel02152110423D
Structure written by MMmdl.
 52 55  0  0  1  0  0  0  0  0999 V2000
   15.2945   -4.6456    7.5469 C   0  0  0  0  0  0  0  0  0  0  0  0
   14.2188   -3.9772    6.6830 N   0  3  0  0  0  0  0  0  0  0  0  0
   14.7170   -3.0548    5.5563 C   0  0  0  0  0  0  0  0  0  0  0  0
   14.9062   -3.7815    4.1963 C   0  0  1  0  0  0  0  0  0  0  0  0
   15.0762   -5.3257    4.2405 C   0  0  0  0  0  0  0  0  0  0  0  0
   15.2119   -5.9103    2.8279 C   0  0  0  0  0  0  0  0  0  0  0  0
   14.0958   -5.4085    1.8831 C   0  0  1  0  0  0  0  0  0  0  0  0
   12.7022   -6.0556    2.1309 C   0  0  2  0  0  0  0  0  0  0  0  0
   12.7494   -7.5720    2.0320 C   0  0  0  0  0  0  0  0  0  0  0  0
   12.3122   -8.3407    3.1105 C   0  0  0  0  0  0  0  0  0  0  0  0
   12.3858   -9.7169    3.0355 C   0  0  0  0  0  0  0  0  0  0  0  0
   12.8953  -10.3167    1.9053 C   0  0  0  0  0  0  0  0  0  0  0  0
   12.9346  -11.6580    1.9834 O   0  0  0  0  0  0  0  0  0  0  0  0
   13.3254   -9.5761    0.8020 C   0  0  0  0  0  0  0  0  0  0  0  0
   13.2462   -8.1884    0.8749 C   0  0  0  0  0  0  0  0  0  0  0  0
   11.6994   -5.5075    1.2212 N   0  0  0  0  0  0  0  0  0  0  0  0
   11.7844   -4.1764    0.7815 C   0  0  0  0  0  0  0  0  0  0  0  0
   10.7699   -3.7067   -0.0503 C   0  0  0  0  0  0  0  0  0  0  0  0
   10.8150   -2.4088   -0.5447 C   0  0  0  0  0  0  0  0  0  0  0  0
   11.8616   -1.5558   -0.1890 C   0  0  0  0  0  0  0  0  0  0  0  0
   11.9106   -0.1398   -0.7467 C   0  0  0  0  0  0  0  0  0  0  0  0
   10.6754    0.3322   -0.9250 F   0  0  0  0  0  0  0  0  0  0  0  0
   12.5663    0.6893    0.0656 F   0  0  0  0  0  0  0  0  0  0  0  0
   12.5325   -0.1603   -1.9255 F   0  0  0  0  0  0  0  0  0  0  0  0
   12.8587   -2.0233    0.6738 C   0  0  0  0  0  0  0  0  0  0  0  0
   12.8627   -3.3435    1.1365 C   0  0  0  0  0  0  0  0  0  0  0  0
   14.0125   -3.8687    1.9839 C   0  0  1  0  0  0  0  0  0  0  0  0
   13.8063   -3.4625    3.3381 O   0  0  0  0  0  0  0  0  0  0  0  0
   14.7131   -5.3408    8.1571 H   0  0  0  0  0  0  0  0  0  0  0  0
   15.7717   -3.8634    8.1459 H   0  0  0  0  0  0  0  0  0  0  0  0
   15.9993   -5.1648    6.8954 H   0  0  0  0  0  0  0  0  0  0  0  0
   13.6481   -4.6984    6.2609 H   0  0  0  0  0  0  0  0  0  0  0  0
   13.9150   -2.3146    5.4984 H   0  0  0  0  0  0  0  0  0  0  0  0
   15.6272   -2.5637    5.9148 H   0  0  0  0  0  0  0  0  0  0  0  0
   15.8145   -3.3482    3.7701 H   0  0  0  0  0  0  0  0  0  0  0  0
   15.9685   -5.5977    4.8005 H   0  0  0  0  0  0  0  0  0  0  0  0
   14.2301   -5.7976    4.7439 H   0  0  0  0  0  0  0  0  0  0  0  0
   16.1813   -5.6195    2.4167 H   0  0  0  0  0  0  0  0  0  0  0  0
   15.2366   -6.9982    2.8824 H   0  0  0  0  0  0  0  0  0  0  0  0
   14.4092   -5.6329    0.8632 H   0  0  0  0  0  0  0  0  0  0  0  0
   12.3643   -5.8188    3.1418 H   0  0  0  0  0  0  0  0  0  0  0  0
   11.9255   -7.8983    4.0140 H   0  0  0  0  0  0  0  0  0  0  0  0
   12.0629  -10.3482    3.8517 H   0  0  0  0  0  0  0  0  0  0  0  0
   13.1991  -12.1433    1.1685 H   0  0  0  0  0  0  0  0  0  0  0  0
   13.7047  -10.0489   -0.0940 H   0  0  0  0  0  0  0  0  0  0  0  0
   13.5679   -7.5941    0.0318 H   0  0  0  0  0  0  0  0  0  0  0  0
   10.7811   -5.9070    1.3745 H   0  0  0  0  0  0  0  0  0  0  0  0
    9.9416   -4.3450   -0.3209 H   0  0  0  0  0  0  0  0  0  0  0  0
   10.0299   -2.0650   -1.2027 H   0  0  0  0  0  0  0  0  0  0  0  0
   13.6742   -1.3708    0.9526 H   0  0  0  0  0  0  0  0  0  0  0  0
   14.9439   -3.4301    1.6181 H   0  0  0  0  0  0  0  0  0  0  0  0
   13.6443   -3.4278    7.3100 H   0  0  0  0  0  0  0  0  0  0  0  0
  1  2  1  0  0  0  0
  1 29  1  0  0  0  0
  1 30  1  0  0  0  0
  1 31  1  0  0  0  0
  2  3  1  0  0  0  0
  2 32  1  0  0  0  0
  2 52  1  0  0  0  0
  3  4  1  0  0  0  0
  3 33  1  0  0  0  0
  3 34  1  0  0  0  0
  4  5  1  0  0  0  0
  4 28  1  0  0  0  0
  4 35  1  6  0  0  0
  5  6  1  0  0  0  0
  5 36  1  0  0  0  0
  5 37  1  0  0  0  0
  6  7  1  0  0  0  0
  6 38  1  0  0  0  0
  6 39  1  0  0  0  0
  7  8  1  0  0  0  0
  7 27  1  0  0  0  0
  7 40  1  6  0  0  0
  8  9  1  0  0  0  0
  8 16  1  0  0  0  0
  8 41  1  1  0  0  0
  9 10  2  0  0  0  0
  9 15  1  0  0  0  0
 10 11  1  0  0  0  0
 10 42  1  0  0  0  0
 11 12  2  0  0  0  0
 11 43  1  0  0  0  0
 12 13  1  0  0  0  0
 12 14  1  0  0  0  0
 13 44  1  0  0  0  0
 14 15  2  0  0  0  0
 14 45  1  0  0  0  0
 15 46  1  0  0  0  0
 16 17  1  0  0  0  0
 16 47  1  0  0  0  0
 17 18  2  0  0  0  0
 17 26  1  0  0  0  0
 18 19  1  0  0  0  0
 18 48  1  0  0  0  0
 19 20  2  0  0  0  0
 19 49  1  0  0  0  0
 20 21  1  0  0  0  0
 20 25  1  0  0  0  0
 21 22  1  0  0  0  0
 21 23  1  0  0  0  0
 21 24  1  0  0  0  0
 25 26  2  0  0  0  0
 25 50  1  0  0  0  0
 26 27  1  0  0  0  0
 27 28  1  0  0  0  0
 27 51  1  6  0  0  0
M  CHG  1   2   1
M  END
>  <ID>
CHEMBL1083517

>  <IC50[nM]>
4

$$$$
