CHEMBL1085895
 OpenBabel02152110423D
Structure written by MMmdl.
 61 64  0  0  1  0  0  0  0  0999 V2000
   16.4467   -4.4109    7.4249 O   0  0  0  0  0  0  0  0  0  0  0  0
   15.2351   -4.6139    7.4730 C   0  0  0  0  0  0  0  0  0  0  0  0
   14.6650   -5.5529    8.2387 N   0  0  0  0  0  0  0  0  0  0  0  0
   15.3869   -6.4361    9.1585 C   0  0  0  0  0  0  0  0  0  0  0  0
   15.2668   -6.0328   10.6455 C   0  0  0  0  0  0  0  0  0  0  0  0
   13.8226   -5.9803   11.1627 C   0  0  0  0  0  0  0  0  0  0  0  0
   13.1566   -4.8684   10.5881 O   0  0  0  0  0  0  0  0  0  0  0  0
   14.3343   -3.9820    6.7011 N   0  0  0  0  0  0  0  0  0  0  0  0
   14.6936   -3.0974    5.5864 C   0  0  0  0  0  0  0  0  0  0  0  0
   14.8991   -3.7794    4.2042 C   0  0  1  0  0  0  0  0  0  0  0  0
   15.0796   -5.3216    4.2396 C   0  0  0  0  0  0  0  0  0  0  0  0
   15.2170   -5.9056    2.8282 C   0  0  0  0  0  0  0  0  0  0  0  0
   14.0982   -5.4118    1.8834 C   0  0  1  0  0  0  0  0  0  0  0  0
   12.7071   -6.0676    2.1263 C   0  0  2  0  0  0  0  0  0  0  0  0
   12.7538   -7.5905    2.0348 C   0  0  0  0  0  0  0  0  0  0  0  0
   12.3222   -8.3753    3.1056 C   0  0  0  0  0  0  0  0  0  0  0  0
   12.3985   -9.7635    3.0200 C   0  0  0  0  0  0  0  0  0  0  0  0
   12.9019  -10.3648    1.8691 C   0  0  0  0  0  0  0  0  0  0  0  0
   13.3224   -9.5891    0.7939 C   0  0  0  0  0  0  0  0  0  0  0  0
   13.2458   -8.2037    0.8776 C   0  0  0  0  0  0  0  0  0  0  0  0
   11.7300   -5.5199    1.1852 N   0  0  0  0  0  0  0  0  0  0  0  0
   11.7894   -4.1781    0.7704 C   0  0  0  0  0  0  0  0  0  0  0  0
   10.7703   -3.7089   -0.0567 C   0  0  0  0  0  0  0  0  0  0  0  0
   10.8105   -2.4059   -0.5418 C   0  0  0  0  0  0  0  0  0  0  0  0
   11.8590   -1.5551   -0.1897 C   0  0  0  0  0  0  0  0  0  0  0  0
   11.9086   -0.1381   -0.7474 C   0  0  0  0  0  0  0  0  0  0  0  0
   10.6756    0.3312   -0.9261 F   0  0  0  0  0  0  0  0  0  0  0  0
   12.5656    0.6893    0.0654 F   0  0  0  0  0  0  0  0  0  0  0  0
   12.5316   -0.1600   -1.9259 F   0  0  0  0  0  0  0  0  0  0  0  0
   12.8601   -2.0232    0.6679 C   0  0  0  0  0  0  0  0  0  0  0  0
   12.8600   -3.3430    1.1355 C   0  0  0  0  0  0  0  0  0  0  0  0
   14.0117   -3.8696    1.9810 C   0  0  1  0  0  0  0  0  0  0  0  0
   13.8055   -3.4605    3.3355 O   0  0  0  0  0  0  0  0  0  0  0  0
   13.6582   -5.5705    8.3023 H   0  0  0  0  0  0  0  0  0  0  0  0
   14.9279   -7.4158    9.0362 H   0  0  0  0  0  0  0  0  0  0  0  0
   16.4371   -6.5451    8.8797 H   0  0  0  0  0  0  0  0  0  0  0  0
   15.8294   -6.7485   11.2505 H   0  0  0  0  0  0  0  0  0  0  0  0
   15.7509   -5.0717   10.8267 H   0  0  0  0  0  0  0  0  0  0  0  0
   13.3103   -6.8986   10.8617 H   0  0  0  0  0  0  0  0  0  0  0  0
   13.8037   -5.9486   12.2545 H   0  0  0  0  0  0  0  0  0  0  0  0
   12.3548   -4.6854   11.0876 H   0  0  0  0  0  0  0  0  0  0  0  0
   13.3526   -4.1690    6.8347 H   0  0  0  0  0  0  0  0  0  0  0  0
   13.9202   -2.3332    5.5075 H   0  0  0  0  0  0  0  0  0  0  0  0
   15.5994   -2.5443    5.8485 H   0  0  0  0  0  0  0  0  0  0  0  0
   15.8025   -3.3267    3.7880 H   0  0  0  0  0  0  0  0  0  0  0  0
   15.9600   -5.5867    4.8260 H   0  0  0  0  0  0  0  0  0  0  0  0
   14.2304   -5.7872    4.7430 H   0  0  0  0  0  0  0  0  0  0  0  0
   16.1836   -5.6053    2.4186 H   0  0  0  0  0  0  0  0  0  0  0  0
   15.2476   -6.9928    2.8841 H   0  0  0  0  0  0  0  0  0  0  0  0
   14.4127   -5.6391    0.8639 H   0  0  0  0  0  0  0  0  0  0  0  0
   12.3723   -5.8162    3.1365 H   0  0  0  0  0  0  0  0  0  0  0  0
   11.9359   -7.9127    4.0028 H   0  0  0  0  0  0  0  0  0  0  0  0
   12.0683  -10.3720    3.8500 H   0  0  0  0  0  0  0  0  0  0  0  0
   12.9496  -11.4422    1.8040 H   0  0  0  0  0  0  0  0  0  0  0  0
   13.6904  -10.0586   -0.1062 H   0  0  0  0  0  0  0  0  0  0  0  0
   13.5615   -7.6046    0.0370 H   0  0  0  0  0  0  0  0  0  0  0  0
   10.9273   -6.1033    0.9966 H   0  0  0  0  0  0  0  0  0  0  0  0
    9.9481   -4.3512   -0.3337 H   0  0  0  0  0  0  0  0  0  0  0  0
   10.0229   -2.0607   -1.1956 H   0  0  0  0  0  0  0  0  0  0  0  0
   13.6834   -1.3760    0.9343 H   0  0  0  0  0  0  0  0  0  0  0  0
   14.9403   -3.4348    1.6035 H   0  0  0  0  0  0  0  0  0  0  0  0
  1  2  2  0  0  0  0
  2  3  1  0  0  0  0
  2  8  1  0  0  0  0
  3  4  1  0  0  0  0
  3 34  1  0  0  0  0
  4  5  1  0  0  0  0
  4 35  1  0  0  0  0
  4 36  1  0  0  0  0
  5  6  1  0  0  0  0
  5 37  1  0  0  0  0
  5 38  1  0  0  0  0
  6  7  1  0  0  0  0
  6 39  1  0  0  0  0
  6 40  1  0  0  0  0
  7 41  1  0  0  0  0
  8  9  1  0  0  0  0
  8 42  1  0  0  0  0
  9 10  1  0  0  0  0
  9 43  1  0  0  0  0
  9 44  1  0  0  0  0
 10 11  1  0  0  0  0
 10 33  1  0  0  0  0
 10 45  1  6  0  0  0
 11 12  1  0  0  0  0
 11 46  1  0  0  0  0
 11 47  1  0  0  0  0
 12 13  1  0  0  0  0
 12 48  1  0  0  0  0
 12 49  1  0  0  0  0
 13 14  1  0  0  0  0
 13 32  1  0  0  0  0
 13 50  1  6  0  0  0
 14 15  1  0  0  0  0
 14 21  1  0  0  0  0
 14 51  1  1  0  0  0
 15 16  2  0  0  0  0
 15 20  1  0  0  0  0
 16 17  1  0  0  0  0
 16 52  1  0  0  0  0
 17 18  2  0  0  0  0
 17 53  1  0  0  0  0
 18 19  1  0  0  0  0
 18 54  1  0  0  0  0
 19 20  2  0  0  0  0
 19 55  1  0  0  0  0
 20 56  1  0  0  0  0
 21 22  1  0  0  0  0
 21 57  1  0  0  0  0
 22 23  2  0  0  0  0
 22 31  1  0  0  0  0
 23 24  1  0  0  0  0
 23 58  1  0  0  0  0
 24 25  2  0  0  0  0
 24 59  1  0  0  0  0
 25 26  1  0  0  0  0
 25 30  1  0  0  0  0
 26 27  1  0  0  0  0
 26 28  1  0  0  0  0
 26 29  1  0  0  0  0
 30 31  2  0  0  0  0
 30 60  1  0  0  0  0
 31 32  1  0  0  0  0
 32 33  1  0  0  0  0
 32 61  1  6  0  0  0
M  END
>  <ID>
CHEMBL1085895

>  <IC50[nM]>
11

$$$$
