CHEMBL1084143
 OpenBabel02152110423D
Structure written by MMmdl.
 74 77  0  0  1  0  0  0  0  0999 V2000
   11.3979   -0.1021   -2.1574 C   0  0  0  0  0  0  0  0  0  0  0  0
   11.9038   -0.1354   -0.7457 C   0  0  0  0  0  0  0  0  0  0  0  0
   11.0501    0.7757    0.0856 C   0  0  0  0  0  0  0  0  0  0  0  0
   11.8578   -1.5536   -0.1865 C   0  0  0  0  0  0  0  0  0  0  0  0
   10.8089   -2.4050   -0.5396 C   0  0  0  0  0  0  0  0  0  0  0  0
   10.7743   -3.7096   -0.0570 C   0  0  0  0  0  0  0  0  0  0  0  0
   11.7936   -4.1831    0.7614 C   0  0  0  0  0  0  0  0  0  0  0  0
   12.8662   -3.3440    1.1312 C   0  0  0  0  0  0  0  0  0  0  0  0
   12.8594   -2.0221    0.6688 C   0  0  0  0  0  0  0  0  0  0  0  0
   14.0156   -3.8719    1.9779 C   0  0  1  0  0  0  0  0  0  0  0  0
   13.8095   -3.4697    3.3345 O   0  0  0  0  0  0  0  0  0  0  0  0
   14.9090   -3.7899    4.1939 C   0  0  1  0  0  0  0  0  0  0  0  0
   14.7292   -3.0772    5.5493 C   0  0  0  0  0  0  0  0  0  0  0  0
   14.3931   -3.9357    6.7113 N   0  0  0  0  0  0  0  0  0  0  0  0
   15.6866   -4.1881    7.8512 S   0  0  0  0  0  0  0  0  0  0  0  0
   15.9605   -2.8994    8.4965 O   0  0  0  0  0  0  0  0  0  0  0  0
   16.7692   -4.9053    7.1723 O   0  0  0  0  0  0  0  0  0  0  0  0
   14.8572   -5.3740    9.0989 C   0  0  0  0  0  0  0  0  0  0  0  0
   15.9171   -5.9921   10.0050 C   0  0  0  0  0  0  0  0  0  0  0  0
   15.3040   -6.9172   11.0141 C   0  0  0  0  0  0  0  0  0  0  0  0
   16.3536   -7.4832   11.8564 N   0  3  0  0  0  0  0  0  0  0  0  0
   15.7569   -8.3836   12.8386 C   0  0  0  0  0  0  0  0  0  0  0  0
   17.2969   -8.2258   11.0254 C   0  0  0  0  0  0  0  0  0  0  0  0
   15.0802   -5.3264    4.2516 C   0  0  0  0  0  0  0  0  0  0  0  0
   15.2184   -5.9103    2.8356 C   0  0  0  0  0  0  0  0  0  0  0  0
   14.1038   -5.4145    1.8827 C   0  0  1  0  0  0  0  0  0  0  0  0
   12.7108   -6.0690    2.1214 C   0  0  2  0  0  0  0  0  0  0  0  0
   12.7593   -7.5926    2.0373 C   0  0  0  0  0  0  0  0  0  0  0  0
   13.2528   -8.2067    0.8813 C   0  0  0  0  0  0  0  0  0  0  0  0
   13.3297   -9.5928    0.7978 C   0  0  0  0  0  0  0  0  0  0  0  0
   12.9076  -10.3673    1.8725 C   0  0  0  0  0  0  0  0  0  0  0  0
   12.4034   -9.7655    3.0228 C   0  0  0  0  0  0  0  0  0  0  0  0
   12.3256   -8.3763    3.1078 C   0  0  0  0  0  0  0  0  0  0  0  0
   11.7374   -5.5233    1.1763 N   0  0  0  0  0  0  0  0  0  0  0  0
   12.0073   -0.7596   -2.7774 H   0  0  0  0  0  0  0  0  0  0  0  0
   11.4572    0.9166   -2.5407 H   0  0  0  0  0  0  0  0  0  0  0  0
   10.3615   -0.4390   -2.1801 H   0  0  0  0  0  0  0  0  0  0  0  0
   12.9225    0.2532   -0.7443 H   0  0  0  0  0  0  0  0  0  0  0  0
   11.4035    0.7643    1.1166 H   0  0  0  0  0  0  0  0  0  0  0  0
   10.0154    0.4346    0.0524 H   0  0  0  0  0  0  0  0  0  0  0  0
   11.1110    1.7902   -0.3082 H   0  0  0  0  0  0  0  0  0  0  0  0
   10.0204   -2.0579   -1.1913 H   0  0  0  0  0  0  0  0  0  0  0  0
    9.9573   -4.3549   -0.3431 H   0  0  0  0  0  0  0  0  0  0  0  0
   13.6721   -1.3692    0.9509 H   0  0  0  0  0  0  0  0  0  0  0  0
   14.9390   -3.4275    1.6025 H   0  0  0  0  0  0  0  0  0  0  0  0
   15.8061   -3.3644    3.7393 H   0  0  0  0  0  0  0  0  0  0  0  0
   15.6460   -2.5318    5.7826 H   0  0  0  0  0  0  0  0  0  0  0  0
   13.9634   -2.3063    5.4584 H   0  0  0  0  0  0  0  0  0  0  0  0
   14.0645   -4.8324    6.3635 H   0  0  0  0  0  0  0  0  0  0  0  0
   14.1276   -4.7955    9.6643 H   0  0  0  0  0  0  0  0  0  0  0  0
   14.3350   -6.1477    8.5414 H   0  0  0  0  0  0  0  0  0  0  0  0
   16.6443   -6.5599    9.4232 H   0  0  0  0  0  0  0  0  0  0  0  0
   16.4626   -5.2168   10.5445 H   0  0  0  0  0  0  0  0  0  0  0  0
   14.5998   -6.3628   11.6345 H   0  0  0  0  0  0  0  0  0  0  0  0
   14.7790   -7.7211   10.4983 H   0  0  0  0  0  0  0  0  0  0  0  0
   15.2319   -9.1875   12.3228 H   0  0  0  0  0  0  0  0  0  0  0  0
   15.0527   -7.8292   13.4590 H   0  0  0  0  0  0  0  0  0  0  0  0
   16.5405   -8.8062   13.4674 H   0  0  0  0  0  0  0  0  0  0  0  0
   16.7719   -9.0297   10.5095 H   0  0  0  0  0  0  0  0  0  0  0  0
   18.0805   -8.6484   11.6542 H   0  0  0  0  0  0  0  0  0  0  0  0
   17.7424   -7.5536   10.2921 H   0  0  0  0  0  0  0  0  0  0  0  0
   15.9570   -5.5928    4.8416 H   0  0  0  0  0  0  0  0  0  0  0  0
   14.2182   -5.7833    4.7368 H   0  0  0  0  0  0  0  0  0  0  0  0
   16.1821   -5.6020    2.4289 H   0  0  0  0  0  0  0  0  0  0  0  0
   15.2502   -6.9993    2.8743 H   0  0  0  0  0  0  0  0  0  0  0  0
   14.4134   -5.6570    0.8656 H   0  0  0  0  0  0  0  0  0  0  0  0
   12.3692   -5.7931    3.1202 H   0  0  0  0  0  0  0  0  0  0  0  0
   13.5722   -7.6049    0.0431 H   0  0  0  0  0  0  0  0  0  0  0  0
   13.7130  -10.0631   -0.0960 H   0  0  0  0  0  0  0  0  0  0  0  0
   12.9657  -11.4445    1.8120 H   0  0  0  0  0  0  0  0  0  0  0  0
   12.0728  -10.3765    3.8502 H   0  0  0  0  0  0  0  0  0  0  0  0
   11.9366   -7.9114    4.0019 H   0  0  0  0  0  0  0  0  0  0  0  0
   10.9582   -6.1105    0.9179 H   0  0  0  0  0  0  0  0  0  0  0  0
   16.8401   -6.7382   12.3344 H   0  0  0  0  0  0  0  0  0  0  0  0
  1  2  1  0  0  0  0
  1 35  1  0  0  0  0
  1 36  1  0  0  0  0
  1 37  1  0  0  0  0
  2  3  1  0  0  0  0
  2  4  1  0  0  0  0
  2 38  1  0  0  0  0
  3 39  1  0  0  0  0
  3 40  1  0  0  0  0
  3 41  1  0  0  0  0
  4  5  2  0  0  0  0
  4  9  1  0  0  0  0
  5  6  1  0  0  0  0
  5 42  1  0  0  0  0
  6  7  2  0  0  0  0
  6 43  1  0  0  0  0
  7  8  1  0  0  0  0
  7 34  1  0  0  0  0
  8  9  2  0  0  0  0
  8 10  1  0  0  0  0
  9 44  1  0  0  0  0
 10 11  1  0  0  0  0
 10 26  1  0  0  0  0
 10 45  1  6  0  0  0
 11 12  1  0  0  0  0
 12 13  1  0  0  0  0
 12 24  1  0  0  0  0
 12 46  1  6  0  0  0
 13 14  1  0  0  0  0
 13 47  1  0  0  0  0
 13 48  1  0  0  0  0
 14 15  1  0  0  0  0
 14 49  1  0  0  0  0
 15 16  2  0  0  0  0
 15 17  2  0  0  0  0
 15 18  1  0  0  0  0
 18 19  1  0  0  0  0
 18 50  1  0  0  0  0
 18 51  1  0  0  0  0
 19 20  1  0  0  0  0
 19 52  1  0  0  0  0
 19 53  1  0  0  0  0
 20 21  1  0  0  0  0
 20 54  1  0  0  0  0
 20 55  1  0  0  0  0
 21 22  1  0  0  0  0
 21 23  1  0  0  0  0
 21 74  1  0  0  0  0
 22 56  1  0  0  0  0
 22 57  1  0  0  0  0
 22 58  1  0  0  0  0
 23 59  1  0  0  0  0
 23 60  1  0  0  0  0
 23 61  1  0  0  0  0
 24 25  1  0  0  0  0
 24 62  1  0  0  0  0
 24 63  1  0  0  0  0
 25 26  1  0  0  0  0
 25 64  1  0  0  0  0
 25 65  1  0  0  0  0
 26 27  1  0  0  0  0
 26 66  1  6  0  0  0
 27 28  1  0  0  0  0
 27 34  1  0  0  0  0
 27 67  1  1  0  0  0
 28 29  2  0  0  0  0
 28 33  1  0  0  0  0
 29 30  1  0  0  0  0
 29 68  1  0  0  0  0
 30 31  2  0  0  0  0
 30 69  1  0  0  0  0
 31 32  1  0  0  0  0
 31 70  1  0  0  0  0
 32 33  2  0  0  0  0
 32 71  1  0  0  0  0
 33 72  1  0  0  0  0
 34 73  1  0  0  0  0
M  CHG  1  21   1
M  END
>  <ID>
CHEMBL1084143

>  <IC50[nM]>
2

$$$$
