CHEMBL1077204
 OpenBabel02152110423D
Structure written by MMmdl.
 66 69  0  0  1  0  0  0  0  0999 V2000
   17.1208   -7.6407   11.4944 C   0  0  0  0  0  0  0  0  0  0  0  0
   15.6242   -7.2482   11.5606 N   0  3  0  0  0  0  0  0  0  0  0  0
   15.1903   -7.0165   13.0246 C   0  0  0  0  0  0  0  0  0  0  0  0
   15.2858   -6.0369   10.6535 C   0  0  0  0  0  0  0  0  0  0  0  0
   15.3687   -6.4451    9.1688 C   0  0  0  0  0  0  0  0  0  0  0  0
   14.6307   -5.5382    8.2833 N   0  0  0  0  0  0  0  0  0  0  0  0
   15.2046   -4.6148    7.4955 C   0  0  0  0  0  0  0  0  0  0  0  0
   16.4171   -4.3982    7.4780 O   0  0  0  0  0  0  0  0  0  0  0  0
   14.3250   -3.9893    6.6937 N   0  0  0  0  0  0  0  0  0  0  0  0
   14.7079   -3.1014    5.5887 C   0  0  0  0  0  0  0  0  0  0  0  0
   14.9053   -3.7799    4.2057 C   0  0  1  0  0  0  0  0  0  0  0  0
   15.0866   -5.3225    4.2389 C   0  0  0  0  0  0  0  0  0  0  0  0
   15.2182   -5.9111    2.8299 C   0  0  0  0  0  0  0  0  0  0  0  0
   14.1067   -5.4122    1.8780 C   0  0  1  0  0  0  0  0  0  0  0  0
   12.7152   -6.0685    2.1272 C   0  0  2  0  0  0  0  0  0  0  0  0
   12.7619   -7.5943    2.0392 C   0  0  0  0  0  0  0  0  0  0  0  0
   13.2585   -8.2080    0.8850 C   0  0  0  0  0  0  0  0  0  0  0  0
   13.3325   -9.5936    0.8010 C   0  0  0  0  0  0  0  0  0  0  0  0
   12.9111  -10.3707    1.8760 C   0  0  0  0  0  0  0  0  0  0  0  0
   12.4042   -9.7694    3.0248 C   0  0  0  0  0  0  0  0  0  0  0  0
   12.3240   -8.3811    3.1077 C   0  0  0  0  0  0  0  0  0  0  0  0
   11.7146   -5.5161    1.2136 N   0  0  0  0  0  0  0  0  0  0  0  0
   11.7897   -4.1790    0.7828 C   0  0  0  0  0  0  0  0  0  0  0  0
   10.7767   -3.7118   -0.0511 C   0  0  0  0  0  0  0  0  0  0  0  0
   10.8134   -2.4087   -0.5370 C   0  0  0  0  0  0  0  0  0  0  0  0
   11.8546   -1.5518   -0.1784 C   0  0  0  0  0  0  0  0  0  0  0  0
   11.8961   -0.1327   -0.7370 C   0  0  0  0  0  0  0  0  0  0  0  0
   12.5327   -0.1525   -1.9080 F   0  0  0  0  0  0  0  0  0  0  0  0
   10.6622    0.3290   -0.9348 F   0  0  0  0  0  0  0  0  0  0  0  0
   12.5354    0.7038    0.0806 F   0  0  0  0  0  0  0  0  0  0  0  0
   12.8578   -2.0201    0.6775 C   0  0  0  0  0  0  0  0  0  0  0  0
   12.8617   -3.3430    1.1425 C   0  0  0  0  0  0  0  0  0  0  0  0
   14.0142   -3.8707    1.9829 C   0  0  1  0  0  0  0  0  0  0  0  0
   13.8081   -3.4639    3.3402 O   0  0  0  0  0  0  0  0  0  0  0  0
   17.7113   -6.7969   11.8567 H   0  0  0  0  0  0  0  0  0  0  0  0
   17.3740   -7.8767   10.4603 H   0  0  0  0  0  0  0  0  0  0  0  0
   17.2673   -8.5191   12.1246 H   0  0  0  0  0  0  0  0  0  0  0  0
   15.8080   -6.2212   13.4462 H   0  0  0  0  0  0  0  0  0  0  0  0
   15.3361   -7.9568   13.5567 H   0  0  0  0  0  0  0  0  0  0  0  0
   14.1337   -6.7438   13.0292 H   0  0  0  0  0  0  0  0  0  0  0  0
   14.2726   -5.7239   10.9114 H   0  0  0  0  0  0  0  0  0  0  0  0
   15.9845   -5.2443   10.9348 H   0  0  0  0  0  0  0  0  0  0  0  0
   16.4162   -6.5231    8.8640 H   0  0  0  0  0  0  0  0  0  0  0  0
   14.9420   -7.4387    9.0363 H   0  0  0  0  0  0  0  0  0  0  0  0
   13.6294   -5.6568    8.2395 H   0  0  0  0  0  0  0  0  0  0  0  0
   13.3355   -4.1464    6.8108 H   0  0  0  0  0  0  0  0  0  0  0  0
   13.9461   -2.3268    5.5168 H   0  0  0  0  0  0  0  0  0  0  0  0
   15.6254   -2.5650    5.8439 H   0  0  0  0  0  0  0  0  0  0  0  0
   15.8025   -3.3200    3.7819 H   0  0  0  0  0  0  0  0  0  0  0  0
   15.9692   -5.5863    4.8210 H   0  0  0  0  0  0  0  0  0  0  0  0
   14.2376   -5.7853    4.7452 H   0  0  0  0  0  0  0  0  0  0  0  0
   16.1874   -5.6240    2.4207 H   0  0  0  0  0  0  0  0  0  0  0  0
   15.2392   -6.9986    2.8928 H   0  0  0  0  0  0  0  0  0  0  0  0
   14.4252   -5.6330    0.8574 H   0  0  0  0  0  0  0  0  0  0  0  0
   12.3880   -5.8136    3.1374 H   0  0  0  0  0  0  0  0  0  0  0  0
   13.5758   -7.6098    0.0450 H   0  0  0  0  0  0  0  0  0  0  0  0
   13.7099  -10.0616   -0.0950 H   0  0  0  0  0  0  0  0  0  0  0  0
   12.9588  -11.4481    1.8080 H   0  0  0  0  0  0  0  0  0  0  0  0
   12.0706  -10.3802    3.8519 H   0  0  0  0  0  0  0  0  0  0  0  0
   11.9249   -7.9218    4.0012 H   0  0  0  0  0  0  0  0  0  0  0  0
   10.8052   -5.9499    1.3121 H   0  0  0  0  0  0  0  0  0  0  0  0
    9.9603   -4.3577   -0.3382 H   0  0  0  0  0  0  0  0  0  0  0  0
   10.0317   -2.0700   -1.2005 H   0  0  0  0  0  0  0  0  0  0  0  0
   13.6772   -1.3689    0.9476 H   0  0  0  0  0  0  0  0  0  0  0  0
   14.9369   -3.4306    1.5995 H   0  0  0  0  0  0  0  0  0  0  0  0
   15.0791   -8.0358   11.2257 H   0  0  0  0  0  0  0  0  0  0  0  0
  1  2  1  0  0  0  0
  1 35  1  0  0  0  0
  1 36  1  0  0  0  0
  1 37  1  0  0  0  0
  2  3  1  0  0  0  0
  2  4  1  0  0  0  0
  2 66  1  0  0  0  0
  3 38  1  0  0  0  0
  3 39  1  0  0  0  0
  3 40  1  0  0  0  0
  4  5  1  0  0  0  0
  4 41  1  0  0  0  0
  4 42  1  0  0  0  0
  5  6  1  0  0  0  0
  5 43  1  0  0  0  0
  5 44  1  0  0  0  0
  6  7  1  0  0  0  0
  6 45  1  0  0  0  0
  7  8  2  0  0  0  0
  7  9  1  0  0  0  0
  9 10  1  0  0  0  0
  9 46  1  0  0  0  0
 10 11  1  0  0  0  0
 10 47  1  0  0  0  0
 10 48  1  0  0  0  0
 11 12  1  0  0  0  0
 11 34  1  0  0  0  0
 11 49  1  6  0  0  0
 12 13  1  0  0  0  0
 12 50  1  0  0  0  0
 12 51  1  0  0  0  0
 13 14  1  0  0  0  0
 13 52  1  0  0  0  0
 13 53  1  0  0  0  0
 14 15  1  0  0  0  0
 14 33  1  0  0  0  0
 14 54  1  6  0  0  0
 15 16  1  0  0  0  0
 15 22  1  0  0  0  0
 15 55  1  1  0  0  0
 16 17  2  0  0  0  0
 16 21  1  0  0  0  0
 17 18  1  0  0  0  0
 17 56  1  0  0  0  0
 18 19  2  0  0  0  0
 18 57  1  0  0  0  0
 19 20  1  0  0  0  0
 19 58  1  0  0  0  0
 20 21  2  0  0  0  0
 20 59  1  0  0  0  0
 21 60  1  0  0  0  0
 22 23  1  0  0  0  0
 22 61  1  0  0  0  0
 23 24  2  0  0  0  0
 23 32  1  0  0  0  0
 24 25  1  0  0  0  0
 24 62  1  0  0  0  0
 25 26  2  0  0  0  0
 25 63  1  0  0  0  0
 26 27  1  0  0  0  0
 26 31  1  0  0  0  0
 27 28  1  0  0  0  0
 27 29  1  0  0  0  0
 27 30  1  0  0  0  0
 31 32  2  0  0  0  0
 31 64  1  0  0  0  0
 32 33  1  0  0  0  0
 33 34  1  0  0  0  0
 33 65  1  6  0  0  0
M  CHG  1   2   1
M  END
>  <ID>
CHEMBL1077204

>  <IC50[nM]>
8

$$$$
