CHEMBL1078998
 OpenBabel02152110423D
Structure written by MMmdl.
 48 51  0  0  1  0  0  0  0  0999 V2000
   12.7976    0.8124    0.0757 C   0  0  0  0  0  0  0  0  0  0  0  0
   11.9223   -0.1613   -0.7525 C   0  0  0  0  0  0  0  0  0  0  0  0
   12.4837   -0.2199   -2.1743 C   0  0  0  0  0  0  0  0  0  0  0  0
   10.4601    0.3453   -0.8043 C   0  0  0  0  0  0  0  0  0  0  0  0
   11.8888   -1.5853   -0.1835 C   0  0  0  0  0  0  0  0  0  0  0  0
   10.8508   -2.4597   -0.5444 C   0  0  0  0  0  0  0  0  0  0  0  0
   10.7949   -3.7505   -0.0484 C   0  0  0  0  0  0  0  0  0  0  0  0
   11.8123   -4.2146    0.7836 C   0  0  0  0  0  0  0  0  0  0  0  0
   12.8780   -3.3664    1.1426 C   0  0  0  0  0  0  0  0  0  0  0  0
   12.8759   -2.0519    0.6772 C   0  0  0  0  0  0  0  0  0  0  0  0
   14.0261   -3.8755    1.9883 C   0  0  1  0  0  0  0  0  0  0  0  0
   13.8055   -3.4421    3.3329 O   0  0  0  0  0  0  0  0  0  0  0  0
   14.8759   -3.7853    4.2185 C   0  0  0  0  0  0  0  0  0  0  0  0
   15.0685   -5.3210    4.2539 C   0  0  0  0  0  0  0  0  0  0  0  0
   15.2293   -5.8998    2.8448 C   0  0  0  0  0  0  0  0  0  0  0  0
   14.1243   -5.4049    1.8889 C   0  0  1  0  0  0  0  0  0  0  0  0
   12.7346   -6.0749    2.1322 C   0  0  2  0  0  0  0  0  0  0  0  0
   12.7930   -7.5766    1.9454 C   0  0  0  0  0  0  0  0  0  0  0  0
   12.2219   -8.5635    2.7386 C   0  0  0  0  0  0  0  0  0  0  0  0
   12.4438   -9.8621    2.2888 C   0  0  0  0  0  0  0  0  0  0  0  0
   13.1981   -9.8931    1.1291 C   0  0  0  0  0  0  0  0  0  0  0  0
   13.6519   -8.2955    0.6241 S   0  0  0  0  0  0  0  0  0  0  0  0
   11.7340   -5.5417    1.2135 N   0  0  0  0  0  0  0  0  0  0  0  0
   12.8648    1.8235   -0.3318 H   0  0  0  0  0  0  0  0  0  0  0  0
   13.7971    0.4041    0.0942 H   0  0  0  0  0  0  0  0  0  0  0  0
   12.5322    0.8833    1.1341 H   0  0  0  0  0  0  0  0  0  0  0  0
   12.5385    0.7348   -2.6951 H   0  0  0  0  0  0  0  0  0  0  0  0
   11.7899   -0.8645   -2.7036 H   0  0  0  0  0  0  0  0  0  0  0  0
   13.4739   -0.6659   -2.2106 H   0  0  0  0  0  0  0  0  0  0  0  0
    9.7744   -0.1972   -1.4501 H   0  0  0  0  0  0  0  0  0  0  0  0
   10.2698    1.3637   -1.1111 H   0  0  0  0  0  0  0  0  0  0  0  0
   10.1339    0.2754    0.2174 H   0  0  0  0  0  0  0  0  0  0  0  0
   10.0622   -2.1793   -1.2124 H   0  0  0  0  0  0  0  0  0  0  0  0
    9.9663   -4.3825   -0.3261 H   0  0  0  0  0  0  0  0  0  0  0  0
   13.7100   -1.4444    0.9812 H   0  0  0  0  0  0  0  0  0  0  0  0
   14.9558   -3.4395    1.6104 H   0  0  0  0  0  0  0  0  0  0  0  0
   15.7951   -3.3212    3.8743 H   0  0  0  0  0  0  0  0  0  0  0  0
   14.6645   -3.3979    5.2121 H   0  0  0  0  0  0  0  0  0  0  0  0
   15.9431   -5.5680    4.8576 H   0  0  0  0  0  0  0  0  0  0  0  0
   14.2113   -5.7762    4.7508 H   0  0  0  0  0  0  0  0  0  0  0  0
   16.1982   -5.6115    2.4315 H   0  0  0  0  0  0  0  0  0  0  0  0
   15.2512   -6.9867    2.8952 H   0  0  0  0  0  0  0  0  0  0  0  0
   14.4370   -5.6167    0.8661 H   0  0  0  0  0  0  0  0  0  0  0  0
   12.3917   -5.8158    3.1334 H   0  0  0  0  0  0  0  0  0  0  0  0
   11.6528   -8.3432    3.6240 H   0  0  0  0  0  0  0  0  0  0  0  0
   12.0628  -10.7452    2.7870 H   0  0  0  0  0  0  0  0  0  0  0  0
   13.5002  -10.7531    0.5568 H   0  0  0  0  0  0  0  0  0  0  0  0
   10.8774   -6.0654    1.1650 H   0  0  0  0  0  0  0  0  0  0  0  0
  1  2  1  0  0  0  0
  1 24  1  0  0  0  0
  1 25  1  0  0  0  0
  1 26  1  0  0  0  0
  2  3  1  0  0  0  0
  2  4  1  0  0  0  0
  2  5  1  0  0  0  0
  3 27  1  0  0  0  0
  3 28  1  0  0  0  0
  3 29  1  0  0  0  0
  4 30  1  0  0  0  0
  4 31  1  0  0  0  0
  4 32  1  0  0  0  0
  5  6  2  0  0  0  0
  5 10  1  0  0  0  0
  6  7  1  0  0  0  0
  6 33  1  0  0  0  0
  7  8  2  0  0  0  0
  7 34  1  0  0  0  0
  8  9  1  0  0  0  0
  8 23  1  0  0  0  0
  9 10  2  0  0  0  0
  9 11  1  0  0  0  0
 10 35  1  0  0  0  0
 11 12  1  0  0  0  0
 11 16  1  0  0  0  0
 11 36  1  6  0  0  0
 12 13  1  0  0  0  0
 13 14  1  0  0  0  0
 13 37  1  0  0  0  0
 13 38  1  0  0  0  0
 14 15  1  0  0  0  0
 14 39  1  0  0  0  0
 14 40  1  0  0  0  0
 15 16  1  0  0  0  0
 15 41  1  0  0  0  0
 15 42  1  0  0  0  0
 16 17  1  0  0  0  0
 16 43  1  6  0  0  0
 17 18  1  0  0  0  0
 17 23  1  0  0  0  0
 17 44  1  1  0  0  0
 18 19  2  0  0  0  0
 18 22  1  0  0  0  0
 19 20  1  0  0  0  0
 19 45  1  0  0  0  0
 20 21  2  0  0  0  0
 20 46  1  0  0  0  0
 21 22  1  0  0  0  0
 21 47  1  0  0  0  0
 23 48  1  0  0  0  0
M  END
>  <ID>
CHEMBL1078998

>  <IC50[nM]>
25

$$$$
