CHEMBL1084676
 OpenBabel02152110423D
Structure written by MMmdl.
 65 68  0  0  1  0  0  0  0  0999 V2000
   16.7713   -6.3756   12.0443 C   0  0  0  0  0  0  0  0  0  0  0  0
   15.7514   -7.3133   11.3477 N   0  3  0  0  0  0  0  0  0  0  0  0
   14.9672   -8.1032   12.4119 C   0  0  0  0  0  0  0  0  0  0  0  0
   14.7574   -6.5424   10.4444 C   0  0  0  0  0  0  0  0  0  0  0  0
   15.5368   -5.7840    9.4103 C   0  0  0  0  0  0  0  0  0  0  0  0
   14.7381   -5.4520    8.2799 O   0  0  0  0  0  0  0  0  0  0  0  0
   15.2652   -4.5977    7.4117 C   0  0  0  0  0  0  0  0  0  0  0  0
   16.5030   -4.3780    7.3160 O   0  0  0  0  0  0  0  0  0  0  0  0
   14.3099   -3.9820    6.6658 N   0  0  0  0  0  0  0  0  0  0  0  0
   14.6677   -3.0872    5.5706 C   0  0  0  0  0  0  0  0  0  0  0  0
   14.8962   -3.7746    4.1958 C   0  0  1  0  0  0  0  0  0  0  0  0
   15.0805   -5.3187    4.2370 C   0  0  0  0  0  0  0  0  0  0  0  0
   15.2182   -5.9065    2.8281 C   0  0  0  0  0  0  0  0  0  0  0  0
   14.1002   -5.4125    1.8825 C   0  0  1  0  0  0  0  0  0  0  0  0
   12.7104   -6.0683    2.1249 C   0  0  2  0  0  0  0  0  0  0  0  0
   12.7572   -7.5912    2.0353 C   0  0  0  0  0  0  0  0  0  0  0  0
   12.3235   -8.3758    3.1056 C   0  0  0  0  0  0  0  0  0  0  0  0
   12.4000   -9.7638    3.0213 C   0  0  0  0  0  0  0  0  0  0  0  0
   12.9028  -10.3655    1.8703 C   0  0  0  0  0  0  0  0  0  0  0  0
   13.3226   -9.5904    0.7944 C   0  0  0  0  0  0  0  0  0  0  0  0
   13.2483   -8.2048    0.8778 C   0  0  0  0  0  0  0  0  0  0  0  0
   11.7296   -5.5214    1.1862 N   0  0  0  0  0  0  0  0  0  0  0  0
   11.7939   -4.1799    0.7662 C   0  0  0  0  0  0  0  0  0  0  0  0
   10.7709   -3.7099   -0.0572 C   0  0  0  0  0  0  0  0  0  0  0  0
   10.8098   -2.4057   -0.5391 C   0  0  0  0  0  0  0  0  0  0  0  0
   11.8576   -1.5528   -0.1908 C   0  0  0  0  0  0  0  0  0  0  0  0
   11.9120   -0.1390   -0.7465 C   0  0  0  0  0  0  0  0  0  0  0  0
   10.6726    0.3357   -0.9277 F   0  0  0  0  0  0  0  0  0  0  0  0
   12.5628    0.6909    0.0665 F   0  0  0  0  0  0  0  0  0  0  0  0
   12.5294   -0.1587   -1.9235 F   0  0  0  0  0  0  0  0  0  0  0  0
   12.8610   -2.0226    0.6675 C   0  0  0  0  0  0  0  0  0  0  0  0
   12.8607   -3.3461    1.1326 C   0  0  0  0  0  0  0  0  0  0  0  0
   14.0132   -3.8683    1.9789 C   0  0  1  0  0  0  0  0  0  0  0  0
   13.8046   -3.4607    3.3297 O   0  0  0  0  0  0  0  0  0  0  0  0
   16.1866   -5.6689   12.6268 H   0  0  0  0  0  0  0  0  0  0  0  0
   17.3506   -5.8769   11.2816 H   0  0  0  0  0  0  0  0  0  0  0  0
   17.4106   -6.9779   12.6615 H   0  0  0  0  0  0  0  0  0  0  0  0
   14.4470   -7.3620   12.9985 H   0  0  0  0  0  0  0  0  0  0  0  0
   15.6920   -8.6413   13.0058 H   0  0  0  0  0  0  0  0  0  0  0  0
   14.2920   -8.7629   11.8873 H   0  0  0  0  0  0  0  0  0  0  0  0
   14.1090   -7.2702    9.9857 H   0  0  0  0  0  0  0  0  0  0  0  0
   14.1835   -5.9006   11.1076 H   0  0  0  0  0  0  0  0  0  0  0  0
   15.9172   -4.8470    9.8432 H   0  0  0  0  0  0  0  0  0  0  0  0
   16.3874   -6.3647    9.0642 H   0  0  0  0  0  0  0  0  0  0  0  0
   13.3335   -4.2030    6.8284 H   0  0  0  0  0  0  0  0  0  0  0  0
   13.9024   -2.3150    5.4890 H   0  0  0  0  0  0  0  0  0  0  0  0
   15.5773   -2.5399    5.8417 H   0  0  0  0  0  0  0  0  0  0  0  0
   15.8009   -3.3231    3.7840 H   0  0  0  0  0  0  0  0  0  0  0  0
   15.9617   -5.5860    4.8205 H   0  0  0  0  0  0  0  0  0  0  0  0
   14.2325   -5.7873    4.7380 H   0  0  0  0  0  0  0  0  0  0  0  0
   16.1842   -5.6070    2.4181 H   0  0  0  0  0  0  0  0  0  0  0  0
   15.2471   -6.9941    2.8842 H   0  0  0  0  0  0  0  0  0  0  0  0
   14.4141   -5.6391    0.8636 H   0  0  0  0  0  0  0  0  0  0  0  0
   12.3709   -5.8147    3.1322 H   0  0  0  0  0  0  0  0  0  0  0  0
   11.9359   -7.9140    4.0022 H   0  0  0  0  0  0  0  0  0  0  0  0
   12.0685  -10.3734    3.8509 H   0  0  0  0  0  0  0  0  0  0  0  0
   12.9503  -11.4423    1.8044 H   0  0  0  0  0  0  0  0  0  0  0  0
   13.6920  -10.0586   -0.1044 H   0  0  0  0  0  0  0  0  0  0  0  0
   13.5628   -7.6049    0.0369 H   0  0  0  0  0  0  0  0  0  0  0  0
   10.9190   -6.0992    1.0077 H   0  0  0  0  0  0  0  0  0  0  0  0
    9.9498   -4.3509   -0.3344 H   0  0  0  0  0  0  0  0  0  0  0  0
   10.0227   -2.0600   -1.1958 H   0  0  0  0  0  0  0  0  0  0  0  0
   13.6823   -1.3748    0.9343 H   0  0  0  0  0  0  0  0  0  0  0  0
   14.9410   -3.4338    1.6028 H   0  0  0  0  0  0  0  0  0  0  0  0
   16.2598   -7.9645   10.7739 H   0  0  0  0  0  0  0  0  0  0  0  0
  1  2  1  0  0  0  0
  1 35  1  0  0  0  0
  1 36  1  0  0  0  0
  1 37  1  0  0  0  0
  2  3  1  0  0  0  0
  2  4  1  0  0  0  0
  2 65  1  0  0  0  0
  3 38  1  0  0  0  0
  3 39  1  0  0  0  0
  3 40  1  0  0  0  0
  4  5  1  0  0  0  0
  4 41  1  0  0  0  0
  4 42  1  0  0  0  0
  5  6  1  0  0  0  0
  5 43  1  0  0  0  0
  5 44  1  0  0  0  0
  6  7  1  0  0  0  0
  7  8  2  0  0  0  0
  7  9  1  0  0  0  0
  9 10  1  0  0  0  0
  9 45  1  0  0  0  0
 10 11  1  0  0  0  0
 10 46  1  0  0  0  0
 10 47  1  0  0  0  0
 11 12  1  0  0  0  0
 11 34  1  0  0  0  0
 11 48  1  6  0  0  0
 12 13  1  0  0  0  0
 12 49  1  0  0  0  0
 12 50  1  0  0  0  0
 13 14  1  0  0  0  0
 13 51  1  0  0  0  0
 13 52  1  0  0  0  0
 14 15  1  0  0  0  0
 14 33  1  0  0  0  0
 14 53  1  6  0  0  0
 15 16  1  0  0  0  0
 15 22  1  0  0  0  0
 15 54  1  1  0  0  0
 16 17  2  0  0  0  0
 16 21  1  0  0  0  0
 17 18  1  0  0  0  0
 17 55  1  0  0  0  0
 18 19  2  0  0  0  0
 18 56  1  0  0  0  0
 19 20  1  0  0  0  0
 19 57  1  0  0  0  0
 20 21  2  0  0  0  0
 20 58  1  0  0  0  0
 21 59  1  0  0  0  0
 22 23  1  0  0  0  0
 22 60  1  0  0  0  0
 23 24  2  0  0  0  0
 23 32  1  0  0  0  0
 24 25  1  0  0  0  0
 24 61  1  0  0  0  0
 25 26  2  0  0  0  0
 25 62  1  0  0  0  0
 26 27  1  0  0  0  0
 26 31  1  0  0  0  0
 27 28  1  0  0  0  0
 27 29  1  0  0  0  0
 27 30  1  0  0  0  0
 31 32  2  0  0  0  0
 31 63  1  0  0  0  0
 32 33  1  0  0  0  0
 33 34  1  0  0  0  0
 33 64  1  6  0  0  0
M  CHG  1   2   1
M  END
>  <ID>
CHEMBL1084676

>  <IC50[nM]>
14

$$$$
