@<TRIPOS>MOLECULE
CHEMBL1084676
 65 68 0 0 0
SMALL
GASTEIGER
****
Structure written by MMmdl.
@<TRIPOS>ATOM
      1 C          16.7713   -6.3756   12.0443 C.3     1  LIG1       -0.0432
      2 N          15.7514   -7.3133   11.3477 N.4     1  LIG1        0.2333
      3 C          14.9672   -8.1032   12.4119 C.3     1  LIG1       -0.0432
      4 C          14.7574   -6.5424   10.4444 C.3     1  LIG1        0.0027
      5 C          15.5368   -5.7840    9.4103 C.3     1  LIG1        0.1336
      6 O          14.7381   -5.4520    8.2799 O.3     1  LIG1       -0.4450
      7 C          15.2652   -4.5977    7.4117 C.2     1  LIG1        0.4005
      8 O          16.5030   -4.3780    7.3160 O.2     1  LIG1       -0.2265
      9 N          14.3099   -3.9820    6.6658 N.am    1  LIG1       -0.2787
     10 C          14.6677   -3.0872    5.5706 C.3     1  LIG1        0.0410
     11 C          14.8962   -3.7746    4.1958 C.3     1  LIG1        0.0750
     12 C          15.0805   -5.3187    4.2370 C.3     1  LIG1       -0.0247
     13 C          15.2182   -5.9065    2.8281 C.3     1  LIG1       -0.0431
     14 C          14.1002   -5.4125    1.8825 C.3     1  LIG1        0.0120
     15 C          12.7104   -6.0683    2.1249 C.3     1  LIG1        0.0514
     16 C          12.7572   -7.5912    2.0353 C.ar    1  LIG1       -0.0269
     17 C          12.3235   -8.3758    3.1056 C.ar    1  LIG1       -0.0568
     18 C          12.4000   -9.7638    3.0213 C.ar    1  LIG1       -0.0614
     19 C          12.9028  -10.3655    1.8703 C.ar    1  LIG1       -0.0617
     20 C          13.3226   -9.5904    0.7944 C.ar    1  LIG1       -0.0614
     21 C          13.2483   -8.2048    0.8778 C.ar    1  LIG1       -0.0568
     22 N          11.7296   -5.5214    1.1862 N.pl3   1  LIG1       -0.3364
     23 C          11.7939   -4.1799    0.7662 C.ar    1  LIG1        0.0333
     24 C          10.7709   -3.7099   -0.0572 C.ar    1  LIG1       -0.0400
     25 C          10.8098   -2.4057   -0.5391 C.ar    1  LIG1       -0.0484
     26 C          11.8576   -1.5528   -0.1908 C.ar    1  LIG1        0.0553
     27 C          11.9120   -0.1390   -0.7465 C.3     1  LIG1        0.4174
     28 F          10.6726    0.3357   -0.9277 F       1  LIG1       -0.1659
     29 F          12.5628    0.6909    0.0665 F       1  LIG1       -0.1659
     30 F          12.5294   -0.1587   -1.9235 F       1  LIG1       -0.1659
     31 C          12.8610   -2.0226    0.6675 C.ar    1  LIG1       -0.0427
     32 C          12.8607   -3.3461    1.1326 C.ar    1  LIG1        0.0028
     33 C          14.0132   -3.8683    1.9789 C.3     1  LIG1        0.0905
     34 O          13.8046   -3.4607    3.3297 O.3     1  LIG1       -0.3668
     35 H          16.1866   -5.6689   12.6268 H       1  LIG1        0.0777
     36 H          17.3506   -5.8769   11.2816 H       1  LIG1        0.0777
     37 H          17.4106   -6.9779   12.6615 H       1  LIG1        0.0777
     38 H          14.4470   -7.3620   12.9985 H       1  LIG1        0.0777
     39 H          15.6920   -8.6413   13.0058 H       1  LIG1        0.0777
     40 H          14.2920   -8.7629   11.8873 H       1  LIG1        0.0777
     41 H          14.1090   -7.2702    9.9857 H       1  LIG1        0.0848
     42 H          14.1835   -5.9006   11.1076 H       1  LIG1        0.0848
     43 H          15.9172   -4.8470    9.8432 H       1  LIG1        0.0752
     44 H          16.3874   -6.3647    9.0642 H       1  LIG1        0.0752
     45 H          13.3335   -4.2030    6.8284 H       1  LIG1        0.1521
     46 H          13.9024   -2.3150    5.4890 H       1  LIG1        0.0488
     47 H          15.5773   -2.5399    5.8417 H       1  LIG1        0.0488
     48 H          15.8009   -3.3231    3.7840 H       1  LIG1        0.0612
     49 H          15.9617   -5.5860    4.8205 H       1  LIG1        0.0291
     50 H          14.2325   -5.7873    4.7380 H       1  LIG1        0.0291
     51 H          16.1842   -5.6070    2.4181 H       1  LIG1        0.0270
     52 H          15.2471   -6.9941    2.8842 H       1  LIG1        0.0270
     53 H          14.4141   -5.6391    0.8636 H       1  LIG1        0.0350
     54 H          12.3709   -5.8147    3.1322 H       1  LIG1        0.0551
     55 H          11.9359   -7.9140    4.0022 H       1  LIG1        0.0621
     56 H          12.0685  -10.3734    3.8509 H       1  LIG1        0.0618
     57 H          12.9503  -11.4423    1.8044 H       1  LIG1        0.0618
     58 H          13.6920  -10.0586   -0.1044 H       1  LIG1        0.0618
     59 H          13.5628   -7.6049    0.0369 H       1  LIG1        0.0621
     60 H          10.9190   -6.0992    1.0077 H       1  LIG1        0.1467
     61 H           9.9498   -4.3509   -0.3344 H       1  LIG1        0.0636
     62 H          10.0227   -2.0600   -1.1958 H       1  LIG1        0.0624
     63 H          13.6823   -1.3748    0.9343 H       1  LIG1        0.0627
     64 H          14.9410   -3.4338    1.6028 H       1  LIG1        0.0650
     65 H          16.2598   -7.9645   10.7739 H       1  LIG1        0.2029
@<TRIPOS>BOND
     1     1     2    1
     2     1    35    1
     3     1    36    1
     4     1    37    1
     5     2     3    1
     6     2     4    1
     7     2    65    1
     8     3    38    1
     9     3    39    1
    10     3    40    1
    11     4     5    1
    12     4    41    1
    13     4    42    1
    14     5     6    1
    15     5    43    1
    16     5    44    1
    17     6     7    1
    18     7     8    2
    19     7     9   am
    20     9    10    1
    21     9    45    1
    22    10    11    1
    23    10    46    1
    24    10    47    1
    25    11    12    1
    26    11    34    1
    27    11    48    1
    28    12    13    1
    29    12    49    1
    30    12    50    1
    31    13    14    1
    32    13    51    1
    33    13    52    1
    34    14    15    1
    35    14    33    1
    36    14    53    1
    37    15    16    1
    38    15    22    1
    39    15    54    1
    40    16    17   ar
    41    16    21   ar
    42    17    18   ar
    43    17    55    1
    44    18    19   ar
    45    18    56    1
    46    19    20   ar
    47    19    57    1
    48    20    21   ar
    49    20    58    1
    50    21    59    1
    51    22    23    1
    52    22    60    1
    53    23    24   ar
    54    23    32   ar
    55    24    25   ar
    56    24    61    1
    57    25    26   ar
    58    25    62    1
    59    26    27    1
    60    26    31   ar
    61    27    28    1
    62    27    29    1
    63    27    30    1
    64    31    32   ar
    65    31    63    1
    66    32    33    1
    67    33    34    1
    68    33    64    1
