@<TRIPOS>MOLECULE
CHEMBL1078691
 52 55 0 0 0
SMALL
GASTEIGER
****
Structure written by MMmdl.
@<TRIPOS>ATOM
      1 C          10.5284    0.3945   -0.7005 C.3     1  LIG1       -0.0560
      2 C          11.9546   -0.1757   -0.7407 C.3     1  LIG1       -0.0127
      3 C          12.4165   -0.1649   -2.1966 C.3     1  LIG1       -0.0560
      4 C          12.8844    0.7521    0.0824 C.3     1  LIG1       -0.0560
      5 C          11.8943   -1.5960   -0.1952 C.ar    1  LIG1       -0.0415
      6 C          10.8356   -2.4428   -0.5504 C.ar    1  LIG1       -0.0563
      7 C          10.7698   -3.7406   -0.0534 C.ar    1  LIG1       -0.0402
      8 C          11.7883   -4.2157    0.7713 C.ar    1  LIG1        0.0333
      9 C          12.8596   -3.3846    1.1392 C.ar    1  LIG1        0.0026
     10 C          12.8744   -2.0732    0.6730 C.ar    1  LIG1       -0.0507
     11 C          14.0135   -3.8879    1.9819 C.3     1  LIG1        0.0901
     12 O          13.8030   -3.4515    3.3286 O.3     1  LIG1       -0.3716
     13 C          14.8803   -3.7868    4.2124 C.3     1  LIG1        0.0485
     14 C          15.0742   -5.3209    4.2479 C.3     1  LIG1       -0.0290
     15 C          15.2231   -5.9051    2.8405 C.3     1  LIG1       -0.0435
     16 C          14.1110   -5.4142    1.8892 C.3     1  LIG1        0.0120
     17 C          12.7111   -6.0630    2.1315 C.3     1  LIG1        0.0514
     18 C          12.7590   -7.5693    2.0352 C.ar    1  LIG1       -0.0267
     19 C          13.2481   -8.1881    0.8802 C.ar    1  LIG1       -0.0534
     20 C          13.3233   -9.5851    0.8265 C.ar    1  LIG1       -0.0199
     21 C          12.9107  -10.3576    1.9488 C.ar    1  LIG1        0.1169
     22 O          12.9634  -11.6728    2.0898 O.3     1  LIG1       -0.5068
     23 C          12.3943   -9.6942    3.0615 C.ar    1  LIG1       -0.0199
     24 C          12.3151   -8.3134    3.1219 C.ar    1  LIG1       -0.0534
     25 N          11.7105   -5.5421    1.2053 N.pl3   1  LIG1       -0.3364
     26 H          10.5280    1.4627   -0.8455 H       1  LIG1        0.0238
     27 H          10.1643    0.2463    0.2887 H       1  LIG1        0.0238
     28 H           9.8005   -0.0342   -1.3977 H       1  LIG1        0.0238
     29 H          11.5237   -0.4812   -2.7197 H       1  LIG1        0.0238
     30 H          13.2176   -0.8646   -2.4082 H       1  LIG1        0.0238
     31 H          12.7087    0.8049   -2.5906 H       1  LIG1        0.0238
     32 H          12.9374    1.7755   -0.3054 H       1  LIG1        0.0238
     33 H          13.8795    0.3348    0.0963 H       1  LIG1        0.0238
     34 H          12.5806    0.8015    1.1253 H       1  LIG1        0.0238
     35 H          10.0396   -2.1260   -1.1991 H       1  LIG1        0.0621
     36 H           9.9353   -4.3746   -0.3205 H       1  LIG1        0.0636
     37 H          13.7039   -1.4652    0.9955 H       1  LIG1        0.0625
     38 H          14.9427   -3.4482    1.6054 H       1  LIG1        0.0650
     39 H          15.7960   -3.3137    3.8697 H       1  LIG1        0.0560
     40 H          14.6678   -3.4019    5.2085 H       1  LIG1        0.0560
     41 H          15.9512   -5.5698    4.8485 H       1  LIG1        0.0287
     42 H          14.2195   -5.7746    4.7481 H       1  LIG1        0.0287
     43 H          16.1903   -5.6151    2.4214 H       1  LIG1        0.0270
     44 H          15.2455   -6.9935    2.8950 H       1  LIG1        0.0270
     45 H          14.4209   -5.6374    0.8659 H       1  LIG1        0.0350
     46 H          12.3698   -5.8077    3.1400 H       1  LIG1        0.0551
     47 H          13.5669   -7.5944    0.0360 H       1  LIG1        0.0622
     48 H          13.6985  -10.0555   -0.0752 H       1  LIG1        0.0654
     49 H          13.1844  -12.1816    1.2794 H       1  LIG1        0.2921
     50 H          12.0817  -10.3093    3.8845 H       1  LIG1        0.0654
     51 H          11.9231   -7.8651    4.0186 H       1  LIG1        0.0622
     52 H          10.8078   -5.9877    1.2726 H       1  LIG1        0.1467
@<TRIPOS>BOND
     1     1     2    1
     2     1    26    1
     3     1    27    1
     4     1    28    1
     5     2     3    1
     6     2     4    1
     7     2     5    1
     8     3    29    1
     9     3    30    1
    10     3    31    1
    11     4    32    1
    12     4    33    1
    13     4    34    1
    14     5     6   ar
    15     5    10   ar
    16     6     7   ar
    17     6    35    1
    18     7     8   ar
    19     7    36    1
    20     8     9   ar
    21     8    25    1
    22     9    10   ar
    23     9    11    1
    24    10    37    1
    25    11    12    1
    26    11    16    1
    27    11    38    1
    28    12    13    1
    29    13    14    1
    30    13    39    1
    31    13    40    1
    32    14    15    1
    33    14    41    1
    34    14    42    1
    35    15    16    1
    36    15    43    1
    37    15    44    1
    38    16    17    1
    39    16    45    1
    40    17    18    1
    41    17    25    1
    42    17    46    1
    43    18    19   ar
    44    18    24   ar
    45    19    20   ar
    46    19    47    1
    47    20    21   ar
    48    20    48    1
    49    21    22    1
    50    21    23   ar
    51    22    49    1
    52    23    24   ar
    53    23    50    1
    54    24    51    1
    55    25    52    1
