@<TRIPOS>MOLECULE
CHEMBL1084677
 62 65 0 0 0
SMALL
GASTEIGER
****
Structure written by MMmdl.
@<TRIPOS>ATOM
      1 C          16.1912   -7.7412   11.8466 C.3     1  LIG1       -0.0448
      2 N          15.1910   -6.9123   11.0170 N.4     1  LIG1        0.2260
      3 C          15.9171   -5.9921   10.0050 C.3     1  LIG1       -0.0126
      4 C          14.8572   -5.3740    9.0989 C.3     1  LIG1        0.1213
      5 S          15.6866   -4.1881    7.8512 S.O2    1  LIG1        0.0344
      6 O          15.9605   -2.8994    8.4965 O.2     1  LIG1       -0.1580
      7 O          16.7692   -4.9053    7.1723 O.2     1  LIG1       -0.1580
      8 N          14.3931   -3.9357    6.7113 N.3     1  LIG1       -0.1919
      9 C          14.7292   -3.0772    5.5493 C.3     1  LIG1        0.0434
     10 C          14.9090   -3.7899    4.1939 C.3     1  LIG1        0.0735
     11 C          15.0802   -5.3264    4.2516 C.3     1  LIG1       -0.0249
     12 C          15.2184   -5.9103    2.8356 C.3     1  LIG1       -0.0431
     13 C          14.1038   -5.4145    1.8827 C.3     1  LIG1        0.0120
     14 C          12.7108   -6.0690    2.1214 C.3     1  LIG1        0.0514
     15 C          12.7593   -7.5926    2.0373 C.ar    1  LIG1       -0.0269
     16 C          12.3256   -8.3763    3.1078 C.ar    1  LIG1       -0.0568
     17 C          12.4034   -9.7655    3.0228 C.ar    1  LIG1       -0.0614
     18 C          12.9076  -10.3673    1.8725 C.ar    1  LIG1       -0.0617
     19 C          13.3297   -9.5928    0.7978 C.ar    1  LIG1       -0.0614
     20 C          13.2528   -8.2067    0.8813 C.ar    1  LIG1       -0.0568
     21 N          11.7374   -5.5233    1.1763 N.pl3   1  LIG1       -0.3364
     22 C          11.7936   -4.1831    0.7614 C.ar    1  LIG1        0.0333
     23 C          10.7743   -3.7096   -0.0570 C.ar    1  LIG1       -0.0400
     24 C          10.8089   -2.4050   -0.5396 C.ar    1  LIG1       -0.0484
     25 C          11.8578   -1.5536   -0.1865 C.ar    1  LIG1        0.0553
     26 C          11.9038   -0.1354   -0.7457 C.3     1  LIG1        0.4174
     27 F          10.6704    0.3354   -0.9312 F       1  LIG1       -0.1659
     28 F          12.5538    0.6943    0.0706 F       1  LIG1       -0.1659
     29 F          12.5323   -0.1555   -1.9215 F       1  LIG1       -0.1659
     30 C          12.8594   -2.0221    0.6688 C.ar    1  LIG1       -0.0427
     31 C          12.8662   -3.3440    1.1312 C.ar    1  LIG1        0.0028
     32 C          14.0156   -3.8719    1.9779 C.3     1  LIG1        0.0905
     33 O          13.8095   -3.4697    3.3345 O.3     1  LIG1       -0.3670
     34 H          15.6079   -8.3192   12.5593 H       1  LIG1        0.0777
     35 H          16.8422   -7.0180   12.3360 H       1  LIG1        0.0777
     36 H          16.7252   -8.3672   11.1323 H       1  LIG1        0.0777
     37 H          14.5471   -7.5260   10.5314 H       1  LIG1        0.2011
     38 H          16.4848   -5.2614   10.5795 H       1  LIG1        0.0830
     39 H          16.6028   -6.6401    9.4590 H       1  LIG1        0.0830
     40 H          14.3005   -6.1177    8.5318 H       1  LIG1        0.0569
     41 H          14.1328   -4.8034    9.6822 H       1  LIG1        0.0569
     42 H          13.9458   -4.8155    6.4388 H       1  LIG1        0.1477
     43 H          13.9602   -2.3095    5.4481 H       1  LIG1        0.0467
     44 H          15.6378   -2.5432    5.8251 H       1  LIG1        0.0467
     45 H          15.8078   -3.3352    3.7720 H       1  LIG1        0.0609
     46 H          15.9578   -5.5895    4.8417 H       1  LIG1        0.0291
     47 H          14.2267   -5.7829    4.7558 H       1  LIG1        0.0291
     48 H          16.1860   -5.6147    2.4228 H       1  LIG1        0.0270
     49 H          15.2464   -6.9974    2.8926 H       1  LIG1        0.0270
     50 H          14.4218   -5.6358    0.8626 H       1  LIG1        0.0350
     51 H          12.3662   -5.8168    3.1277 H       1  LIG1        0.0551
     52 H          11.9339   -7.9169    4.0042 H       1  LIG1        0.0621
     53 H          12.0706  -10.3738    3.8521 H       1  LIG1        0.0618
     54 H          12.9509  -11.4449    1.8045 H       1  LIG1        0.0618
     55 H          13.6962  -10.0604   -0.1030 H       1  LIG1        0.0618
     56 H          13.5656   -7.6086    0.0393 H       1  LIG1        0.0621
     57 H          10.8964   -6.0776    1.0669 H       1  LIG1        0.1467
     58 H           9.9514   -4.3520   -0.3355 H       1  LIG1        0.0636
     59 H          10.0217   -2.0639   -1.1957 H       1  LIG1        0.0624
     60 H          13.6843   -1.3740    0.9344 H       1  LIG1        0.0627
     61 H          14.9446   -3.4365    1.6004 H       1  LIG1        0.0650
     62 H          14.6360   -6.3283   11.6396 H       1  LIG1        0.2011
@<TRIPOS>BOND
     1     1     2    1
     2     1    34    1
     3     1    35    1
     4     1    36    1
     5     2     3    1
     6     2    37    1
     7     2    62    1
     8     3     4    1
     9     3    38    1
    10     3    39    1
    11     4     5    1
    12     4    40    1
    13     4    41    1
    14     5     6    2
    15     5     7    2
    16     5     8    1
    17     8     9    1
    18     8    42    1
    19     9    10    1
    20     9    43    1
    21     9    44    1
    22    10    11    1
    23    10    33    1
    24    10    45    1
    25    11    12    1
    26    11    46    1
    27    11    47    1
    28    12    13    1
    29    12    48    1
    30    12    49    1
    31    13    14    1
    32    13    32    1
    33    13    50    1
    34    14    15    1
    35    14    21    1
    36    14    51    1
    37    15    16   ar
    38    15    20   ar
    39    16    17   ar
    40    16    52    1
    41    17    18   ar
    42    17    53    1
    43    18    19   ar
    44    18    54    1
    45    19    20   ar
    46    19    55    1
    47    20    56    1
    48    21    22    1
    49    21    57    1
    50    22    23   ar
    51    22    31   ar
    52    23    24   ar
    53    23    58    1
    54    24    25   ar
    55    24    59    1
    56    25    26    1
    57    25    30   ar
    58    26    27    1
    59    26    28    1
    60    26    29    1
    61    30    31   ar
    62    30    60    1
    63    31    32    1
    64    32    33    1
    65    32    61    1
