lig_18624-1
     RDKit          3D

 38 39  0  0  0  0  0  0  0  0999 V2000
   24.0160   12.2540   30.2760 C   0  0  0  0  0  0  0  0  0  0  0  0
   23.2910   10.9310   30.5360 C   0  0  0  0  0  0  0  0  0  0  0  0
   22.1420   11.2130   31.3310 O   0  0  0  0  0  0  0  0  0  0  0  0
   21.3320   10.1740   31.7570 C   0  0  0  0  0  0  0  0  0  0  0  0
   21.6860    8.9140   31.3840 N   0  0  0  0  0  0  0  0  0  0  0  0
   20.8980    7.8950   31.7570 C   0  0  0  0  0  0  0  0  0  0  0  0
   19.7600    8.0590   32.5320 C   0  0  0  0  0  0  0  0  0  0  0  0
   19.4060    9.3390   32.9150 C   0  0  0  0  0  0  0  0  0  0  0  0
   18.2480    9.4340   33.6770 N   0  0  0  0  0  0  0  0  0  0  0  0
   20.1940   10.4360   32.5280 C   0  0  0  0  0  0  0  0  0  0  0  0
   19.8720   11.8130   32.8830 C   0  0  0  0  0  0  0  0  0  0  0  0
   19.6250   12.9100   33.1610 N   0  0  0  0  0  0  0  0  0  0  0  0
   21.4000    6.6890   31.3170 N   0  0  0  0  0  0  0  0  0  0  0  0
   20.7830    5.5180   31.1300 C   0  0  0  0  0  0  0  0  0  0  0  0
   19.5710    5.3640   31.2680 O   0  0  0  0  0  0  0  0  0  0  0  0
   21.6350    4.3090   30.7130 C   0  0  0  0  0  0  0  0  0  0  0  0
   23.1280    4.5970   30.5480 C   0  0  0  0  0  0  0  0  0  0  0  0
   23.5810    5.4160   29.5070 C   0  0  0  0  0  0  0  0  0  0  0  0
   24.9400    5.7010   29.3730 C   0  0  0  0  0  0  0  0  0  0  0  0
   25.8540    5.1670   30.2820 C   0  0  0  0  0  0  0  0  0  0  0  0
   25.4100    4.3460   31.3180 C   0  0  0  0  0  0  0  0  0  0  0  0
   24.0500    4.0610   31.4520 C   0  0  0  0  0  0  0  0  0  0  0  0
   24.9070   12.0980   29.6690 H   0  0  0  0  0  0  0  0  0  0  0  0
   23.3680   12.9520   29.7460 H   0  0  0  0  0  0  0  0  0  0  0  0
   24.3210   12.7250   31.2110 H   0  0  0  0  0  0  0  0  0  0  0  0
   22.9960   10.4700   29.5910 H   0  0  0  0  0  0  0  0  0  0  0  0
   23.9580   10.2380   31.0530 H   0  0  0  0  0  0  0  0  0  0  0  0
   19.1610    7.2150   32.8310 H   0  0  0  0  0  0  0  0  0  0  0  0
   17.7800    8.5900   33.9930 H   0  0  0  0  0  0  0  0  0  0  0  0
   17.8750   10.3450   33.9350 H   0  0  0  0  0  0  0  0  0  0  0  0
   22.3840    6.7400   31.1200 H   0  0  0  0  0  0  0  0  0  0  0  0
   21.4790    3.5190   31.4480 H   0  0  0  0  0  0  0  0  0  0  0  0
   21.2430    3.9300   29.7730 H   0  0  0  0  0  0  0  0  0  0  0  0
   22.8770    5.8380   28.8040 H   0  0  0  0  0  0  0  0  0  0  0  0
   25.2860    6.3340   28.5690 H   0  0  0  0  0  0  0  0  0  0  0  0
   26.9070    5.3920   30.1820 H   0  0  0  0  0  0  0  0  0  0  0  0
   26.1190    3.9320   32.0210 H   0  0  0  0  0  0  0  0  0  0  0  0
   23.7190    3.4240   32.2600 H   0  0  0  0  0  0  0  0  0  0  0  0
  1  2  1  0
  1 23  1  0
  1 24  1  0
  1 25  1  0
  2  3  1  0
  2 26  1  0
  2 27  1  0
  3  4  1  0
  4 10  2  0
  4  5  1  0
  5  6  2  0
  6  7  1  0
  6 13  1  0
  7  8  2  0
  7 28  1  0
  8  9  1  0
  8 10  1  0
  9 29  1  0
  9 30  1  0
 10 11  1  0
 11 12  3  0
 13 14  1  0
 13 31  1  0
 14 15  2  0
 14 16  1  0
 16 17  1  0
 16 32  1  0
 16 33  1  0
 17 22  1  0
 17 18  2  0
 18 19  1  0
 18 34  1  0
 19 20  2  0
 19 35  1  0
 20 21  1  0
 20 36  1  0
 21 22  2  0
 21 37  1  0
 22 38  1  0
M  END
$$$$
