lig_p38a_2u
                    3D
 Structure written by MMmdl.
 64 68  0  0  1  0            999 V2000
   34.5500   34.9800   21.1800 C   0  0  0  0  0  0
   34.0400   38.9800   23.7400 C   0  0  0  0  0  0
   34.8000   37.8100   21.4400 C   0  0  0  0  0  0
   35.2500   37.1300   20.2300 C   0  0  0  0  0  0
   34.3100   37.0400   22.5100 C   0  0  0  0  0  0
   34.8500   39.2100   21.6200 C   0  0  0  0  0  0
   35.1700   35.7800   20.1300 C   0  0  0  0  0  0
   34.4800   39.7900   22.7800 N   0  0  0  0  0  0
   34.3300   33.7800   21.0200 O   0  0  0  0  0  0
   34.2100   35.6200   22.3400 N   0  0  0  0  0  0
   33.9300   37.6500   23.6600 N   0  0  0  0  0  0
   33.6700   39.5700   24.9300 N   0  0  0  0  0  0
   35.7000   37.7400   19.4700 H   0  0  0  0  0  0
   35.2200   39.8600   20.8400 H   0  0  0  0  0  0
   33.7900   40.5700   24.9700 H   0  0  0  0  0  0
   31.1000   38.2400   27.4000 C   0  0  0  0  0  0
   31.6600   39.0600   26.2300 C   0  0  0  0  0  0
   33.1500   38.7500   26.0100 C   0  0  0  0  0  0
   33.9600   39.0000   27.2900 C   0  0  0  0  0  0
   33.3900   38.1900   28.4600 C   0  0  0  0  0  0
   31.9000   38.5000   28.6800 O   0  0  0  0  0  0
   31.1300   37.1600   27.1500 H   0  0  0  0  0  0
   30.0200   38.5100   27.5700 H   0  0  0  0  0  0
   31.5300   40.1500   26.4300 H   0  0  0  0  0  0
   31.0800   38.8400   25.2900 H   0  0  0  0  0  0
   33.2700   37.6900   25.7000 H   0  0  0  0  0  0
   35.0300   38.7400   27.1200 H   0  0  0  0  0  0
   33.9200   40.0900   27.5400 H   0  0  0  0  0  0
   33.5200   37.1000   28.2500 H   0  0  0  0  0  0
   33.9700   38.4100   29.4000 H   0  0  0  0  0  0
   35.6600   35.1800   19.0100 O   0  0  0  0  0  0
   37.2600   38.0600   16.4500 C   0  0  0  0  0  0
   38.0700   37.4700   17.4400 C   0  0  0  0  0  0
   37.5300   36.5000   18.3000 C   0  0  0  0  0  0
   36.1900   36.1200   18.1700 C   0  0  0  0  0  0
   35.3800   36.7000   17.1800 C   0  0  0  0  0  0
   35.9200   37.6700   16.3200 C   0  0  0  0  0  0
   37.7700   38.9800   15.6300 F   0  0  0  0  0  0
   39.1200   37.7800   17.5500 H   0  0  0  0  0  0
   38.2900   35.9500   19.2500 F   0  0  0  0  0  0
   34.3200   36.4000   17.0800 H   0  0  0  0  0  0
   35.2800   38.1300   15.5400 H   0  0  0  0  0  0
   32.9700   35.0100   25.8900 C   0  0  0  0  0  0
   33.4300   35.8000   24.6500 C   0  0  0  0  0  0
   33.7300   34.8600   23.4800 C   0  0  0  0  0  0
   34.7800   33.8000   23.8800 C   0  0  0  0  0  0
   34.3200   33.0100   25.1200 C   0  0  0  0  0  0
   34.0100   33.9600   26.2900 N   0  0  0  0  0  0
   32.0000   34.5100   25.6700 H   0  0  0  0  0  0
   32.7800   35.7100   26.7400 H   0  0  0  0  0  0
   34.3500   36.3900   24.9100 H   0  0  0  0  0  0
   32.6500   36.5400   24.3500 H   0  0  0  0  0  0
   32.8000   34.3500   23.1600 H   0  0  0  0  0  0
   34.9600   33.1000   23.0300 H   0  0  0  0  0  0
   35.7500   34.3100   24.1000 H   0  0  0  0  0  0
   33.4000   32.4300   24.8600 H   0  0  0  0  0  0
   35.1000   32.2800   25.4100 H   0  0  0  0  0  0
   33.3900   33.0200   27.6500 S   0  0  0  0  0  0
   32.9900   33.9600   28.7200 O   0  0  0  0  0  0
   31.9300   32.1500   27.1000 C   0  0  0  0  0  0
   34.4100   32.0100   28.0200 O   0  0  0  0  0  0
   32.2000   31.4400   26.3100 H   0  0  0  0  0  0
   31.4900   31.6000   27.9300 H   0  0  0  0  0  0
   31.2000   32.8600   26.7100 H   0  0  0  0  0  0
  1  7  1  0  0  0
  1  9  2  0  0  0
  1 10  1  0  0  0
  2  8  1  0  0  0
  2 11  2  0  0  0
  2 12  1  0  0  0
  3  4  1  0  0  0
  3  5  2  0  0  0
  3  6  1  0  0  0
  4  7  2  0  0  0
  4 13  1  0  0  0
  5 10  1  0  0  0
  5 11  1  0  0  0
  6  8  2  0  0  0
  6 14  1  0  0  0
  7 31  1  0  0  0
 10 45  1  0  0  0
 12 15  1  0  0  0
 12 18  1  0  0  0
 16 17  1  0  0  0
 16 21  1  0  0  0
 16 22  1  0  0  0
 16 23  1  0  0  0
 17 18  1  0  0  0
 17 24  1  0  0  0
 17 25  1  0  0  0
 18 19  1  0  0  0
 18 26  1  0  0  0
 19 20  1  0  0  0
 19 27  1  0  0  0
 19 28  1  0  0  0
 20 21  1  0  0  0
 20 29  1  0  0  0
 20 30  1  0  0  0
 31 35  1  0  0  0
 32 33  1  0  0  0
 32 37  2  0  0  0
 32 38  1  0  0  0
 33 34  2  0  0  0
 33 39  1  0  0  0
 34 35  1  0  0  0
 34 40  1  0  0  0
 35 36  2  0  0  0
 36 37  1  0  0  0
 36 41  1  0  0  0
 37 42  1  0  0  0
 43 44  1  0  0  0
 43 48  1  0  0  0
 43 49  1  0  0  0
 43 50  1  0  0  0
 44 45  1  0  0  0
 44 51  1  0  0  0
 44 52  1  0  0  0
 45 46  1  0  0  0
 45 53  1  0  0  0
 46 47  1  0  0  0
 46 54  1  0  0  0
 46 55  1  0  0  0
 47 48  1  0  0  0
 47 56  1  0  0  0
 47 57  1  0  0  0
 48 58  1  0  0  0
 58 59  2  0  0  0
 58 60  1  0  0  0
 58 61  2  0  0  0
 60 62  1  0  0  0
 60 63  1  0  0  0
 60 64  1  0  0  0
M  END
> <s_m_entry_id>
22

> <s_m_entry_name>
lig_p38a_2u.1

> <s_pdb_PDB_TITLE>
MX MODEL

> <i_pdb_PDB_Model>
1

> <r_pdb_PDB_CRYST1_a>
182

> <r_pdb_PDB_CRYST1_b>
182.5

> <r_pdb_PDB_CRYST1_c>
277.1

> <r_pdb_PDB_CRYST1_alpha>
90

> <r_pdb_PDB_CRYST1_beta>
90

> <r_pdb_PDB_CRYST1_gamma>
90

> <s_pdb_PDB_CRYST1_Space_Group>
P 1

> <i_pdb_PDB_CRYST1_z>
1

> <s_pdb_PDB_format_version>
3.0

> <s_m_Source_Path>
/users/home/dhahn3/projects/PLBenchmarks/PLBenchmarks/data/2019-12-09_p38/03_docked

> <s_m_Source_File>
lig_p38a_2u.pdb

> <i_m_Source_File_Index>
1

$$$$
