lig_16
     RDKit          3D

 51 54  0  0  0  0  0  0  0  0999 V2000
   26.9500   15.3200    9.1900 C   0  0  0  0  0  0  0  0  0  0  0  0
   27.6300   14.1000    9.0100 C   0  0  0  0  0  0  0  0  0  0  0  0
   28.7000   14.0500    9.1700 H   0  0  0  0  0  0  0  0  0  0  0  0
   26.9200   12.9300    8.6400 C   0  0  0  0  0  0  0  0  0  0  0  0
   27.4500   12.0000    8.5100 H   0  0  0  0  0  0  0  0  0  0  0  0
   25.5200   12.9900    8.4400 C   0  0  0  0  0  0  0  0  0  0  0  0
   24.8300   14.2200    8.6200 C   0  0  0  0  0  0  0  0  0  0  0  0
   25.5400   15.3800    8.9800 C   0  0  0  0  0  0  0  0  0  0  0  0
   25.0200   16.3200    9.1100 H   0  0  0  0  0  0  0  0  0  0  0  0
   24.8500   11.8500    8.0900 O   0  0  0  0  0  0  0  0  0  0  0  0
   23.4400   11.7100    8.2500 C   0  0  0  0  0  0  0  0  0  0  0  0
   22.7200   13.0100    7.8000 C   0  0  0  0  0  0  0  0  0  0  0  0
   21.6700   12.9400    8.1000 H   0  0  0  0  0  0  0  0  0  0  0  0
   22.7800   13.0600    6.7100 H   0  0  0  0  0  0  0  0  0  0  0  0
   23.3100   14.3000    8.3800 C   0  0  2  0  0  0  0  0  0  0  0  0
   23.0400   15.4900    7.4400 C   0  0  0  0  0  0  0  0  0  0  0  0
   22.3300   16.4100    8.1200 N   0  0  0  0  0  0  0  0  0  0  0  0
   22.0900   15.9200    9.3700 C   0  0  0  0  0  0  0  0  0  0  0  0
   22.5700   14.7400    9.5700 N   0  0  0  0  0  0  0  0  0  0  0  0
   27.6400   16.5100    9.5400 C   0  0  0  0  0  0  0  0  0  0  0  0
   21.9300   17.7200    7.5900 C   0  0  0  0  0  0  0  0  0  0  0  0
   22.2800   17.8100    6.5600 H   0  0  0  0  0  0  0  0  0  0  0  0
   22.3800   18.5100    8.2000 H   0  0  0  0  0  0  0  0  0  0  0  0
   20.8500   17.8100    7.6300 H   0  0  0  0  0  0  0  0  0  0  0  0
   21.3200   16.6500   10.2600 N   0  0  0  0  0  0  0  0  0  0  0  0
   21.0900   16.2700   11.1700 H   0  0  0  0  0  0  0  0  0  0  0  0
   20.9900   17.5700   10.0100 H   0  0  0  0  0  0  0  0  0  0  0  0
   27.0500   17.4600   10.4000 C   0  0  0  0  0  0  0  0  0  0  0  0
   26.0600   17.2800   10.8100 H   0  0  0  0  0  0  0  0  0  0  0  0
   27.7400   18.6500   10.7300 C   0  0  0  0  0  0  0  0  0  0  0  0
   27.2900   19.3700   11.3900 H   0  0  0  0  0  0  0  0  0  0  0  0
   29.0300   18.9000   10.1900 C   0  0  0  0  0  0  0  0  0  0  0  0
   29.7200   20.1000   10.5200 O   0  0  0  0  0  0  0  0  0  0  0  0
   31.0100   20.2500    9.9200 C   0  0  0  0  0  0  0  0  0  0  0  0
   31.4600   21.1900   10.2300 H   0  0  0  0  0  0  0  0  0  0  0  0
   30.9000   20.2400    8.8300 H   0  0  0  0  0  0  0  0  0  0  0  0
   31.6500   19.4200   10.2300 H   0  0  0  0  0  0  0  0  0  0  0  0
   29.6200   17.9500    9.3100 C   0  0  0  0  0  0  0  0  0  0  0  0
   30.6000   18.1400    8.9000 H   0  0  0  0  0  0  0  0  0  0  0  0
   28.9200   16.7700    8.9900 C   0  0  0  0  0  0  0  0  0  0  0  0
   29.3700   16.0500    8.3100 H   0  0  0  0  0  0  0  0  0  0  0  0
   23.5200   15.6100    6.3100 O   0  0  0  0  0  0  0  0  0  0  0  0
   23.0200   10.5200    7.3600 C   0  0  0  0  0  0  0  0  0  0  0  0
   23.2700   10.7400    6.3200 H   0  0  0  0  0  0  0  0  0  0  0  0
   21.9400   10.3600    7.4500 H   0  0  0  0  0  0  0  0  0  0  0  0
   23.5400    9.6200    7.6800 H   0  0  0  0  0  0  0  0  0  0  0  0
   23.0800   11.3900    9.7200 C   0  0  0  0  0  0  0  0  0  0  0  0
   23.3700   12.2300   10.3600 H   0  0  0  0  0  0  0  0  0  0  0  0
   23.6000   10.4900   10.0400 H   0  0  0  0  0  0  0  0  0  0  0  0
   22.0000   11.2300    9.8100 H   0  0  0  0  0  0  0  0  0  0  0  0
   22.4062   14.2705   10.4491 H   0  0  0  0  0  0  0  0  0  0  0  0
  1  8  1  0
  1  2  2  0
  1 20  1  0
  2  4  1  0
  2  3  1  0
  4  6  2  0
  4  5  1  0
  6 10  1  0
  6  7  1  0
  7 15  1  0
  7  8  2  0
  8  9  1  0
 10 11  1  0
 11 43  1  0
 11 12  1  0
 11 47  1  0
 12 14  1  0
 12 13  1  0
 12 15  1  0
 15 16  1  6
 15 19  1  0
 16 42  2  0
 16 17  1  0
 17 21  1  0
 17 18  1  0
 18 19  2  0
 18 25  1  0
 19 51  1  0
 20 40  1  0
 20 28  2  0
 21 22  1  0
 21 24  1  0
 21 23  1  0
 25 27  1  0
 25 26  1  0
 28 30  1  0
 28 29  1  0
 30 32  2  0
 30 31  1  0
 32 38  1  0
 32 33  1  0
 33 34  1  0
 34 36  1  0
 34 35  1  0
 34 37  1  0
 38 39  1  0
 38 40  2  0
 40 41  1  0
 43 44  1  0
 43 45  1  0
 43 46  1  0
 47 50  1  0
 47 49  1  0
 47 48  1  0
M  CHG  1  19   1
M  END
>  <s_m_entry_id>  (1) 
7

>  <s_m_entry_name>  (1) 
lig_16.1

>  <chiral flag>  (1) 
1

>  <version>  (1) 
0

>  <s_m_Source_Path>  (1) 
/projects/CNS/OGA/FEP_compare/PLBenchmarks/PLBenchmarks/data/2020-02-05_bace_hunt/03_docked

>  <s_m_Source_File>  (1) 
lig_16.sdf

>  <i_m_Source_File_Index>  (1) 
1

$$$$
