systems/pde2/lig_49582468/lig_49582468.pdb
 OpenBabel09231909243D

 57 61  0  0  0  0  0  0  0  0999 V2000
   -5.7500   25.1800   18.8880 C   0  0  0  0  0  0  0  0  0  0  0  0
   -4.4580   24.4770   18.4380 C   0  0  0  0  0  0  0  0  0  0  0  0
   -4.6310   23.0980   18.2000 O   0  0  0  0  0  0  0  0  0  0  0  0
   -3.3940   22.4740   17.9340 C   0  0  0  0  0  0  0  0  0  0  0  0
   -2.3780   22.2610   19.0720 C   0  0  0  0  0  0  0  0  0  0  0  0
   -1.0750   21.9000   18.7190 C   0  0  0  0  0  0  0  0  0  0  0  0
   -0.0960   21.6390   19.6220 N   0  0  0  0  0  0  0  0  0  0  0  0
   -0.4090   21.7310   20.9380 C   0  0  0  0  0  0  0  0  0  0  0  0
   -2.6670   22.3670   20.4430 C   0  0  0  0  0  0  0  0  0  0  0  0
   -1.6780   22.0990   21.3940 C   0  0  0  0  0  0  0  0  0  0  0  0
   -2.0080   22.0870   22.8420 C   0  0  0  0  0  0  0  0  0  0  0  0
   -2.9560   21.3040   23.3160 N   0  0  0  0  0  0  0  0  0  0  0  0
   -2.9530   21.3360   24.6930 N   0  0  0  0  0  0  0  0  0  0  0  0
   -1.9680   22.1870   25.0440 C   0  0  0  0  0  0  0  0  0  0  0  0
   -1.4650   22.5800   26.2920 C   0  0  0  0  0  0  0  0  0  0  0  0
   -1.9850   22.0640   27.6200 C   0  0  0  0  0  0  0  0  0  0  0  0
   -0.4410   23.4620   26.3970 N   0  0  0  0  0  0  0  0  0  0  0  0
   -1.3710   22.7400   23.8950 N   0  0  0  0  0  0  0  0  0  0  0  0
   -0.3900   23.6820   23.9640 C   0  0  0  0  0  0  0  0  0  0  0  0
    0.1480   24.3760   22.8360 C   0  0  0  0  0  0  0  0  0  0  0  0
    1.1600   25.3300   23.0180 C   0  0  0  0  0  0  0  0  0  0  0  0
    1.6270   25.6100   24.3030 C   0  0  0  0  0  0  0  0  0  0  0  0
    1.1020   24.9720   25.4180 C   0  0  0  0  0  0  0  0  0  0  0  0
    0.0820   24.0150   25.2710 C   0  0  0  0  0  0  0  0  0  0  0  0
    1.7590   26.1290   21.8550 C   0  0  0  0  0  0  0  0  0  0  0  0
    2.5760   25.3940   20.8730 N   0  0  0  0  0  0  0  0  0  0  0  0
    3.2010   24.1690   21.3840 C   0  0  0  0  0  0  0  0  0  0  0  0
    4.0820   23.5040   20.3090 C   0  0  0  0  0  0  0  0  0  0  0  0
    5.0800   24.4080   19.8490 O   0  0  0  0  0  0  0  0  0  0  0  0
    4.5280   25.6090   19.3160 C   0  0  0  0  0  0  0  0  0  0  0  0
    3.6020   26.3040   20.3390 C   0  0  0  0  0  0  0  0  0  0  0  0
   -6.5350   25.0030   18.1520 H   0  0  0  0  0  0  0  0  0  0  0  0
   -6.1030   24.7400   19.8210 H   0  0  0  0  0  0  0  0  0  0  0  0
   -3.6800   24.6280   19.1870 H   0  0  0  0  0  0  0  0  0  0  0  0
   -4.0950   24.9490   17.5240 H   0  0  0  0  0  0  0  0  0  0  0  0
   -0.7970   21.8030   17.6800 H   0  0  0  0  0  0  0  0  0  0  0  0
    0.3780   21.4800   21.6340 H   0  0  0  0  0  0  0  0  0  0  0  0
   -3.6550   22.6250   20.7890 H   0  0  0  0  0  0  0  0  0  0  0  0
   -1.1880   21.5780   28.1830 H   0  0  0  0  0  0  0  0  0  0  0  0
   -2.3850   22.8830   28.2180 H   0  0  0  0  0  0  0  0  0  0  0  0
   -2.7810   21.3320   27.4770 H   0  0  0  0  0  0  0  0  0  0  0  0
   -0.2280   24.1970   21.8420 H   0  0  0  0  0  0  0  0  0  0  0  0
    2.3980   26.3530   24.4490 H   0  0  0  0  0  0  0  0  0  0  0  0
    1.4530   25.2230   26.4080 H   0  0  0  0  0  0  0  0  0  0  0  0
    2.3490   26.9440   22.2800 H   0  0  0  0  0  0  0  0  0  0  0  0
    0.9370   26.6050   21.3200 H   0  0  0  0  0  0  0  0  0  0  0  0
    2.4190   23.4630   21.6490 H   0  0  0  0  0  0  0  0  0  0  0  0
    3.7820   24.3640   22.2870 H   0  0  0  0  0  0  0  0  0  0  0  0
    3.4710   23.1590   19.4720 H   0  0  0  0  0  0  0  0  0  0  0  0
    4.5580   22.6140   20.7180 H   0  0  0  0  0  0  0  0  0  0  0  0
    3.9900   25.3980   18.3900 H   0  0  0  0  0  0  0  0  0  0  0  0
    5.3450   26.2770   19.0440 H   0  0  0  0  0  0  0  0  0  0  0  0
    4.2160   26.7030   21.1490 H   0  0  0  0  0  0  0  0  0  0  0  0
    3.1230   27.1620   19.8650 H   0  0  0  0  0  0  0  0  0  0  0  0
   -2.9020   22.9980   17.1150 H   0  0  0  0  0  0  0  0  0  0  0  0
   -3.5780   21.5200   17.4400 H   0  0  0  0  0  0  0  0  0  0  0  0
   -5.5790   26.2490   19.0120 H   0  0  0  0  0  0  0  0  0  0  0  0
  1  2  1  0  0  0  0
  1 32  1  0  0  0  0
  1 33  1  0  0  0  0
  1 57  1  0  0  0  0
  2  3  1  0  0  0  0
  2 34  1  0  0  0  0
  2 35  1  0  0  0  0
  3  4  1  0  0  0  0
  4  5  1  0  0  0  0
  4 55  1  0  0  0  0
  4 56  1  0  0  0  0
  5  6  2  0  0  0  0
  5  9  1  0  0  0  0
  6  7  1  0  0  0  0
  6 36  1  0  0  0  0
  7  8  2  0  0  0  0
  8 10  1  0  0  0  0
  8 37  1  0  0  0  0
  9 10  2  0  0  0  0
  9 38  1  0  0  0  0
 10 11  1  0  0  0  0
 11 12  2  0  0  0  0
 11 18  1  0  0  0  0
 12 13  1  0  0  0  0
 13 14  2  0  0  0  0
 14 15  1  0  0  0  0
 14 18  1  0  0  0  0
 15 16  1  0  0  0  0
 15 17  2  0  0  0  0
 16 39  1  0  0  0  0
 16 40  1  0  0  0  0
 16 41  1  0  0  0  0
 17 24  1  0  0  0  0
 18 19  1  0  0  0  0
 19 20  2  0  0  0  0
 19 24  1  0  0  0  0
 20 21  1  0  0  0  0
 20 42  1  0  0  0  0
 21 22  2  0  0  0  0
 21 25  1  0  0  0  0
 22 23  1  0  0  0  0
 22 43  1  0  0  0  0
 23 24  2  0  0  0  0
 23 44  1  0  0  0  0
 25 26  1  0  0  0  0
 25 45  1  0  0  0  0
 25 46  1  0  0  0  0
 26 27  1  0  0  0  0
 26 31  1  0  0  0  0
 27 28  1  0  0  0  0
 27 47  1  0  0  0  0
 27 48  1  0  0  0  0
 28 29  1  0  0  0  0
 28 49  1  0  0  0  0
 28 50  1  0  0  0  0
 29 30  1  0  0  0  0
 30 31  1  0  0  0  0
 30 51  1  0  0  0  0
 30 52  1  0  0  0  0
 31 53  1  0  0  0  0
 31 54  1  0  0  0  0
M  END
$$$$
