# Molecule written by the XED library from Cresset
@<TRIPOS>MOLECULE
CatS_153
    90     94      1
SMALL
USER_CHARGES
@<TRIPOS>ATOM
      1  C5         -0.1343   16.2940   -5.9150 C.3       1 MOL1       -0.0117
      2  C6         -0.8233   16.4893   -7.2586 C.3       1 MOL1       -0.0539
      3  C7         -1.2900   15.1472   -7.8189 C.3       1 MOL1       -0.0578
      4  N1         -2.1667   14.4292   -6.8692 N.4       1 MOL1       -0.2281
      5  C8         -1.4722   14.2177   -5.5960 C.3       1 MOL1       -0.0578
      6  C9         -1.0460   15.5360   -4.9662 C.3       1 MOL1       -0.0539
      7  C10        -2.5803   13.1269   -7.4201 C.3       1 MOL1       -0.0328
      8  C11        -3.1242   13.0259   -8.8679 C.3       1 MOL1        0.0191
      9  C12        -3.2638   11.5090   -9.1209 C.3       1 MOL1        0.0979
     10  N2         -4.2420   10.5140   -8.6600 N.pl3     1 MOL1       -0.0670
     11  C13        -5.4820   10.2818   -9.1501 C.ar      1 MOL1        0.0572
     12  C14        -6.1814    9.4202   -8.4170 C.ar      1 MOL1       -0.0684
     13  C15        -5.3051    9.1153   -7.3479 C.ar      1 MOL1        0.0392
     14  N3         -4.1751    9.7758   -7.5248 N.2       1 MOL1       -0.2943
     15  C16        -5.5560    8.2629   -6.1939 C.ar      1 MOL1       -0.0066
     16  C17        -4.5300    7.4890   -5.6949 C.ar      1 MOL1       -0.0846
     17  C18        -4.7351    6.6810   -4.6049 C.ar      1 MOL1       -0.0687
     18  C19        -5.9572    6.5959   -3.9660 C.ar      1 MOL1        0.0171
     19  C20        -6.9943    7.3881   -4.4571 C.ar      1 MOL1        0.0480
     20  C21        -6.7800    8.1990   -5.5519 C.ar      1 MOL1       -0.0655
     21  S1         -8.6630    7.4821   -3.7701 S.3       1 MOL1       -0.1782
     22  C22        -9.3309    9.0539   -3.1619 C.3       1 MOL1       -0.0086
     23  C23        -8.2222   10.0751   -2.8262 C.3       1 MOL1       -0.0435
     24  N4         -8.5759   11.1032   -1.8210 N.4       1 MOL1       -0.2221
     25  C24        -9.9618   11.5501   -1.9600 C.3       1 MOL1       -0.0619
     26  C25       -10.3209   12.5460   -0.8612 C.3       1 MOL1       -0.0723
     27  C26        -9.3938   13.7531   -0.8589 C.3       1 MOL1       -0.0219
     28  C27        -7.9500   13.2839   -0.8649 C.3       1 MOL1        0.1911
     29  C28        -7.6879   12.2569   -1.9581 C.3       1 MOL1        0.0050
     30  F1         -7.6269   12.7482    0.3769 F         1 MOL1       -0.1800
     31  F2         -7.1229   14.3871   -1.0520 F         1 MOL1       -0.1800
     32  C29        -5.9109    5.6178   -2.7931 C.3       1 MOL1        0.4149
     33  F3         -7.0478    4.8450   -2.6558 F         1 MOL1       -0.1514
     34  F4         -5.7071    6.2891   -1.5909 F         1 MOL1       -0.1514
     35  F5         -4.8839    4.6870   -2.9152 F         1 MOL1       -0.1514
     36  C30        -7.6092    9.0309   -8.7911 C.3       1 MOL1        0.1169
     37  N5         -8.1021    9.5491  -10.0910 N.3       1 MOL1       -0.4606
     38  C31        -7.6020   10.9236  -10.2947 C.3       1 MOL1        0.0844
     39  C32        -6.0629   10.9440  -10.3818 C.3       1 MOL1       -0.0158
     40  S2         -9.6482    9.2098  -10.4699 S.3       1 MOL1        0.4316
     41  O1         -9.6798    9.4661  -11.8731 O.2       1 MOL1       -0.3139
     42  O2         -9.7609    7.8150  -10.1931 O.2       1 MOL1       -0.3139
     43  C33       -11.2730    9.8122   -9.9540 C.3       1 MOL1        0.0421
     44  O3         -4.3941   13.6859   -8.9950 O.3       1 MOL1       -0.4408
     45  H11        -0.0018   17.3952   -5.4591 C.3       1 MOL1       -0.0891
     46  H           0.8807   15.6795   -6.1105 O.3       1 MOL1       -0.4397
     47  H1         -2.3400   13.5120   -9.6368 H         1 MOL1        0.0680
     48  H12        -0.0230   16.9622   -8.0167 H         1 MOL1        0.0491
     49  H13        -1.7600   17.2321   -7.1892 H         1 MOL1        0.0491
     50  H14        -0.3071   14.5309   -8.1251 H         1 MOL1        0.0529
     51  H15        -1.9180   15.3601   -8.8180 H         1 MOL1        0.0529
     52  H16        -0.5077   13.5348   -5.8191 H         1 MOL1        0.0529
     53  H17        -2.1649   13.6379   -4.8071 H         1 MOL1        0.0529
     54  H18        -2.0182   16.1967   -4.7169 H         1 MOL1        0.0491
     55  H19        -0.5130   15.2529   -3.9300 H         1 MOL1        0.0491
     56  H20        -1.6790   12.3470   -7.2932 H         1 MOL1        0.0549
     57  H21        -3.4671   12.7578   -6.7000 H         1 MOL1        0.0549
     58  H22        -2.2441   11.0568   -8.6780 H         1 MOL1        0.0624
     59  H23        -3.2469   11.3532  -10.3111 H         1 MOL1        0.0624
     60  H24        -3.6279    7.5170   -6.1271 H         1 MOL1        0.0910
     61  H25        -3.9710    6.1360   -4.2648 H         1 MOL1        0.0908
     62  H26        -7.5340    8.7609   -5.8897 H         1 MOL1        0.0929
     63  H27       -10.0141    8.8492   -2.1951 H         1 MOL1        0.0553
     64  H28        -9.9372    9.5710   -4.0569 H         1 MOL1        0.0553
     65  H29        -7.2731    9.4749   -2.4011 H         1 MOL1        0.0548
     66  H30        -7.8926   10.5920   -3.8590 H         1 MOL1        0.0548
     67  H31       -10.7041   10.6140   -1.8572 H         1 MOL1        0.0530
     68  H32       -10.1000   12.0340   -3.0490 H         1 MOL1        0.0530
     69  H33       -10.2477   12.0270    0.2198 H         1 MOL1        0.0467
     70  H34       -11.4462   12.9320   -1.0200 H         1 MOL1        0.0467
     71  H35        -9.6091   14.4330   -1.8228 H         1 MOL1        0.0519
     72  H36        -9.5878   14.3972    0.1342 H         1 MOL1        0.0519
     73  H37        -6.5441   11.8981   -1.9202 H         1 MOL1        0.0586
     74  H38        -7.8700   12.7941   -3.0161 H         1 MOL1        0.0586
     75  H39        -8.3370    9.4322   -7.9290 H         1 MOL1        0.0628
     76  H40        -7.6838    7.8373   -8.8309 H         1 MOL1        0.0628
     77  H41        -7.9648   11.6280   -9.3961 H         1 MOL1        0.0601
     78  H42        -8.0210   11.3601  -11.3292 H         1 MOL1        0.0601
     79  H43        -5.6992   12.0840  -10.4542 H         1 MOL1        0.0516
     80  H44        -5.7072   10.3492  -11.3599 H         1 MOL1        0.0516
     81  H45       -11.4340    9.5611   -8.7922 H         1 MOL1        0.0588
     82  H46       -11.3349   10.9991  -10.1201 H         1 MOL1        0.0588
     83  H47       -12.1249    9.2699  -10.6009 H         1 MOL1        0.0588
     84  H48        -4.3181   14.6689   -8.7980 H         1 MOL1        0.3291
     85  H           0.6737   18.1256   -6.1361 H         1 MOL1        0.0457
     86  H           0.5223   17.3836   -4.3760 H         1 MOL1        0.0457
     87  H          -1.0247   18.0054   -5.2940 H         1 MOL1        0.0457
     88  H          -2.9090   14.9385   -6.7195 H         1 MOL1        0.1922
     89  H          -8.4737   10.7392   -0.9907 H         1 MOL1        0.1944
     90  H           1.4782   16.1525   -6.7679 H         1 MOL1        0.3291
@<TRIPOS>BOND
     1      1      2 1 
     2      1      6 1 
     3      1     45 1 
     4      1     46 1 
     5      2      3 1 
     6      3      4 1 
     7      4      5 1 
     8      4      7 1 
     9      5      6 1 
    10      7      8 1 
    11      8      9 1 
    12      8     44 1 
    13      9     10 1 
    14     10     11 ar
    15     10     14 ar
    16     11     12 ar
    17     11     39 1 
    18     12     13 ar
    19     12     36 1 
    20     13     14 ar
    21     13     15 1 
    22     15     16 ar
    23     15     20 ar
    24     16     17 ar
    25     17     18 ar
    26     18     19 ar
    27     18     32 1 
    28     19     20 ar
    29     19     21 1 
    30     21     22 1 
    31     22     23 1 
    32     23     24 1 
    33     24     25 1 
    34     24     29 1 
    35     25     26 1 
    36     26     27 1 
    37     27     28 1 
    38     28     29 1 
    39     28     30 1 
    40     28     31 1 
    41     32     33 1 
    42     32     34 1 
    43     32     35 1 
    44     36     37 1 
    45     37     38 1 
    46     37     40 1 
    47     38     39 1 
    48     40     41 2 
    49     40     42 2 
    50     40     43 1 
    51      2     48 1 
    52      2     49 1 
    53      3     50 1 
    54      3     51 1 
    55      5     52 1 
    56      5     53 1 
    57      6     54 1 
    58      6     55 1 
    59      7     56 1 
    60      7     57 1 
    61      8     47 1 
    62      9     58 1 
    63      9     59 1 
    64     16     60 1 
    65     17     61 1 
    66     20     62 1 
    67     22     63 1 
    68     22     64 1 
    69     23     65 1 
    70     23     66 1 
    71     25     67 1 
    72     25     68 1 
    73     26     69 1 
    74     26     70 1 
    75     27     71 1 
    76     27     72 1 
    77     29     73 1 
    78     29     74 1 
    79     36     75 1 
    80     36     76 1 
    81     38     77 1 
    82     38     78 1 
    83     39     79 1 
    84     39     80 1 
    85     43     81 1 
    86     43     82 1 
    87     43     83 1 
    88     44     84 1 
    89     85     45 1 
    90     86     45 1 
    91     87     45 1 
    92     88      4 1 
    93     89     24 1 
    94     90     46 1 
@<TRIPOS>SUBSTRUCTURE
     1 MOL1         1 MOLECULE          1 A
