lig_p38a_2p
                    3D
 Structure written by MMmdl.
 58 61  0  0  1  0            999 V2000
   34.5500   34.9800   21.1800 C   0  0  0  0  0  0
   34.0400   38.9800   23.7400 C   0  0  0  0  0  0
   34.8000   37.8100   21.4400 C   0  0  0  0  0  0
   35.2500   37.1300   20.2300 C   0  0  0  0  0  0
   34.3100   37.0400   22.5100 C   0  0  0  0  0  0
   34.8500   39.2100   21.6200 C   0  0  0  0  0  0
   35.1700   35.7800   20.1300 C   0  0  0  0  0  0
   34.4800   39.7900   22.7800 N   0  0  0  0  0  0
   34.3300   33.7800   21.0200 O   0  0  0  0  0  0
   34.2100   35.6200   22.3400 N   0  0  0  0  0  0
   33.9300   37.6500   23.6600 N   0  0  0  0  0  0
   33.6700   39.5700   24.9300 N   0  0  0  0  0  0
   35.7000   37.7400   19.4700 H   0  0  0  0  0  0
   35.2200   39.8600   20.8400 H   0  0  0  0  0  0
   33.7900   40.5700   24.9700 H   0  0  0  0  0  0
   33.6800   34.8400   23.4400 C   0  0  0  0  0  0
   33.4600   35.5200   24.3100 H   0  0  0  0  0  0
   32.7300   34.3400   23.1200 H   0  0  0  0  0  0
   34.7000   33.7900   23.8700 C   0  0  0  0  0  0
   34.9100   33.1100   23.0100 H   0  0  0  0  0  0
   35.6400   34.3000   24.1900 H   0  0  0  0  0  0
   34.1300   32.9800   25.0300 C   0  0  0  0  0  0
   33.9200   33.6600   25.8900 H   0  0  0  0  0  0
   34.8800   32.2100   25.3400 H   0  0  0  0  0  0
   32.8700   32.3000   24.6000 S   0  0  0  0  0  0
   33.1900   31.4100   23.4600 O   0  0  0  0  0  0
   31.8500   33.3400   24.3400 O   0  0  0  0  0  0
   32.3900   31.4500   25.7400 C   0  0  0  0  0  0
   32.1400   32.1000   26.6100 H   0  0  0  0  0  0
   31.4800   30.8900   25.4200 H   0  0  0  0  0  0
   33.1900   30.7300   26.0300 H   0  0  0  0  0  0
   31.1200   38.3100   27.4600 C   0  0  0  0  0  0
   31.6800   39.1200   26.2900 C   0  0  0  0  0  0
   33.1500   38.7500   26.0100 C   0  0  0  0  0  0
   34.0100   38.9400   27.2700 C   0  0  0  0  0  0
   33.4500   38.1200   28.4400 C   0  0  0  0  0  0
   31.9900   38.4900   28.7200 O   0  0  0  0  0  0
   31.1000   37.2300   27.1800 H   0  0  0  0  0  0
   30.0700   38.6200   27.6700 H   0  0  0  0  0  0
   31.6200   40.2100   26.5200 H   0  0  0  0  0  0
   31.0700   38.9500   25.3700 H   0  0  0  0  0  0
   33.2100   37.6900   25.6700 H   0  0  0  0  0  0
   35.0700   38.6300   27.0600 H   0  0  0  0  0  0
   34.0400   40.0200   27.5400 H   0  0  0  0  0  0
   33.5200   37.0300   28.2000 H   0  0  0  0  0  0
   34.0700   38.2900   29.3600 H   0  0  0  0  0  0
   35.6600   35.1800   19.0100 O   0  0  0  0  0  0
   37.2600   38.0600   16.4500 C   0  0  0  0  0  0
   38.0500   37.5200   17.4800 C   0  0  0  0  0  0
   37.5100   36.5500   18.3500 C   0  0  0  0  0  0
   36.1900   36.1200   18.1700 C   0  0  0  0  0  0
   35.4000   36.6500   17.1400 C   0  0  0  0  0  0
   35.9400   37.6200   16.2800 C   0  0  0  0  0  0
   37.7700   38.9800   15.6300 F   0  0  0  0  0  0
   39.0900   37.8600   17.6200 H   0  0  0  0  0  0
   38.2600   36.0400   19.3200 F   0  0  0  0  0  0
   34.3600   36.3100   17.0100 H   0  0  0  0  0  0
   35.3200   38.0500   15.4700 H   0  0  0  0  0  0
  1  7  1  0  0  0
  1  9  2  0  0  0
  1 10  1  0  0  0
  2  8  1  0  0  0
  2 11  2  0  0  0
  2 12  1  0  0  0
  3  4  1  0  0  0
  3  5  2  0  0  0
  3  6  1  0  0  0
  4  7  2  0  0  0
  4 13  1  0  0  0
  5 10  1  0  0  0
  5 11  1  0  0  0
  6  8  2  0  0  0
  6 14  1  0  0  0
  7 47  1  0  0  0
 10 16  1  0  0  0
 12 15  1  0  0  0
 12 34  1  0  0  0
 16 17  1  0  0  0
 16 18  1  0  0  0
 16 19  1  0  0  0
 19 20  1  0  0  0
 19 21  1  0  0  0
 19 22  1  0  0  0
 22 23  1  0  0  0
 22 24  1  0  0  0
 22 25  1  0  0  0
 25 26  2  0  0  0
 25 27  2  0  0  0
 25 28  1  0  0  0
 28 29  1  0  0  0
 28 30  1  0  0  0
 28 31  1  0  0  0
 32 33  1  0  0  0
 32 37  1  0  0  0
 32 38  1  0  0  0
 32 39  1  0  0  0
 33 34  1  0  0  0
 33 40  1  0  0  0
 33 41  1  0  0  0
 34 35  1  0  0  0
 34 42  1  0  0  0
 35 36  1  0  0  0
 35 43  1  0  0  0
 35 44  1  0  0  0
 36 37  1  0  0  0
 36 45  1  0  0  0
 36 46  1  0  0  0
 47 51  1  0  0  0
 48 49  1  0  0  0
 48 53  2  0  0  0
 48 54  1  0  0  0
 49 50  2  0  0  0
 49 55  1  0  0  0
 50 51  1  0  0  0
 50 56  1  0  0  0
 51 52  2  0  0  0
 52 53  1  0  0  0
 52 57  1  0  0  0
 53 58  1  0  0  0
M  END
> <s_m_entry_id>
17

> <s_m_entry_name>
lig_p38a_2p.1

> <s_pdb_PDB_TITLE>
MX MODEL

> <i_pdb_PDB_Model>
1

> <r_pdb_PDB_CRYST1_a>
180.36

> <r_pdb_PDB_CRYST1_b>
196.82

> <r_pdb_PDB_CRYST1_c>
277.74

> <r_pdb_PDB_CRYST1_alpha>
90

> <r_pdb_PDB_CRYST1_beta>
90

> <r_pdb_PDB_CRYST1_gamma>
90

> <s_pdb_PDB_CRYST1_Space_Group>
P 1

> <i_pdb_PDB_CRYST1_z>
1

> <s_pdb_PDB_format_version>
3.0

> <s_m_Source_Path>
/users/home/dhahn3/projects/PLBenchmarks/PLBenchmarks/data/2019-12-09_p38/03_docked

> <s_m_Source_File>
lig_p38a_2p.pdb

> <i_m_Source_File_Index>
1

$$$$
