lig_CHEMBL3402749_500_9
  -OEChem-01272013113D

 43 46  0     0  0  0  0  0  0999 V2000
   23.1900   32.9700   51.3200 C   0  0  0  0  0  0  0  0  0  0  0  0
   23.7300   33.2900   52.6900 C   0  0  0  0  0  0  0  0  0  0  0  0
   23.0100   32.9100   53.7700 O   0  0  0  0  0  0  0  0  0  0  0  0
   23.7500   33.3200   54.8300 C   0  0  0  0  0  0  0  0  0  0  0  0
   24.8700   33.9300   54.4900 N   0  0  0  0  0  0  0  0  0  0  0  0
   24.8600   33.9300   53.1700 C   0  0  0  0  0  0  0  0  0  0  0  0
   23.2900   32.9600   56.2000 C   0  0  0  0  0  0  0  0  0  0  0  0
   24.2100   32.9700   57.2600 C   0  0  0  0  0  0  0  0  0  0  0  0
   23.8200   32.5800   58.5400 C   0  0  0  0  0  0  0  0  0  0  0  0
   22.5200   32.1700   58.7800 C   0  0  0  0  0  0  0  0  0  0  0  0
   21.5800   32.1400   57.7400 C   0  0  0  0  0  0  0  0  0  0  0  0
   20.1400   31.7100   58.0200 C   0  0  0  0  0  0  0  0  0  0  0  0
   19.8700   30.2900   57.7100 N   0  0  0  0  0  0  0  0  0  0  0  0
   19.4100   30.0300   56.4100 N   0  0  0  0  0  0  0  0  0  0  0  0
   19.1400   28.8300   56.0100 C   0  0  0  0  0  0  0  0  0  0  0  0
   19.3700   27.7600   56.9600 C   0  0  0  0  0  0  0  0  0  0  0  0
   19.8500   28.0000   58.2000 C   0  0  0  0  0  0  0  0  0  0  0  0
   20.1400   29.3400   58.6700 C   0  0  0  0  0  0  0  0  0  0  0  0
   20.5700   29.5500   59.8100 O   0  0  0  0  0  0  0  0  0  0  0  0
   18.6400   28.5300   54.6500 C   0  0  0  0  0  0  0  0  0  0  0  0
   17.8500   27.4000   54.3900 C   0  0  0  0  0  0  0  0  0  0  0  0
   17.4000   27.1200   53.1000 C   0  0  0  0  0  0  0  0  0  0  0  0
   16.6400   26.0300   52.8700 F   0  0  0  0  0  0  0  0  0  0  0  0
   17.7400   27.9700   52.0400 C   0  0  0  0  0  0  0  0  0  0  0  0
   18.5200   29.1000   52.2800 C   0  0  0  0  0  0  0  0  0  0  0  0
   18.8400   29.9300   51.2600 F   0  0  0  0  0  0  0  0  0  0  0  0
   18.9700   29.3800   53.5700 C   0  0  0  0  0  0  0  0  0  0  0  0
   21.9700   32.5500   56.4500 C   0  0  0  0  0  0  0  0  0  0  0  0
   23.0000   31.9000   51.2100 H   0  0  0  0  0  0  0  0  0  0  0  0
   23.8800   33.2600   50.5300 H   0  0  0  0  0  0  0  0  0  0  0  0
   22.2500   33.4800   51.1400 H   0  0  0  0  0  0  0  0  0  0  0  0
   25.6600   34.3500   52.5800 H   0  0  0  0  0  0  0  0  0  0  0  0
   25.2300   33.2800   57.0900 H   0  0  0  0  0  0  0  0  0  0  0  0
   24.5400   32.6000   59.3400 H   0  0  0  0  0  0  0  0  0  0  0  0
   22.2300   31.8500   59.7700 H   0  0  0  0  0  0  0  0  0  0  0  0
   19.8900   31.9400   59.0500 H   0  0  0  0  0  0  0  0  0  0  0  0
   19.4700   32.3400   57.4400 H   0  0  0  0  0  0  0  0  0  0  0  0
   19.1900   26.7300   56.6900 H   0  0  0  0  0  0  0  0  0  0  0  0
   20.0300   27.1800   58.8700 H   0  0  0  0  0  0  0  0  0  0  0  0
   17.5600   26.7300   55.1800 H   0  0  0  0  0  0  0  0  0  0  0  0
   17.4000   27.7500   51.0400 H   0  0  0  0  0  0  0  0  0  0  0  0
   19.5800   30.2600   53.7300 H   0  0  0  0  0  0  0  0  0  0  0  0
   21.2500   32.5300   55.6500 H   0  0  0  0  0  0  0  0  0  0  0  0
  1 30  1  0  0  0  0
 24 41  1  0  0  0  0
  1 31  1  0  0  0  0
  1 29  1  0  0  0  0
 25 26  1  0  0  0  0
  1  2  1  0  0  0  0
 24 25  2  0  0  0  0
 22 24  1  0  0  0  0
 25 27  1  0  0  0  0
  6 32  1  0  0  0  0
  2  6  2  0  0  0  0
  2  3  1  0  0  0  0
 22 23  1  0  0  0  0
 21 22  2  0  0  0  0
  5  6  1  0  0  0  0
 27 42  1  0  0  0  0
 20 27  2  0  0  0  0
  3  4  1  0  0  0  0
 20 21  1  0  0  0  0
 21 40  1  0  0  0  0
  4  5  2  0  0  0  0
 15 20  1  0  0  0  0
  4  7  1  0  0  0  0
 28 43  1  0  0  0  0
 14 15  2  0  0  0  0
 15 16  1  0  0  0  0
  7 28  2  0  0  0  0
  7  8  1  0  0  0  0
 13 14  1  0  0  0  0
 11 28  1  0  0  0  0
 16 38  1  0  0  0  0
 16 17  2  0  0  0  0
  8 33  1  0  0  0  0
  8  9  2  0  0  0  0
 12 37  1  0  0  0  0
 12 13  1  0  0  0  0
 13 18  1  0  0  0  0
 11 12  1  0  0  0  0
 10 11  2  0  0  0  0
 12 36  1  0  0  0  0
 17 18  1  0  0  0  0
 17 39  1  0  0  0  0
  9 10  1  0  0  0  0
  9 34  1  0  0  0  0
 18 19  2  0  0  0  0
 10 35  1  0  0  0  0
M  END
$$$$
