systems/pde2/lig_50107616/lig_50107616.pdb
 OpenBabel09231909243D

 60 64  0  0  0  0  0  0  0  0999 V2000
   -5.6590   26.7370   18.5770 C   0  0  0  0  0  0  0  0  0  0  0  0
   -5.7430   25.3440   18.7730 O   0  0  0  0  0  0  0  0  0  0  0  0
   -4.5480   24.6750   18.4370 C   0  0  0  0  0  0  0  0  0  0  0  0
   -4.7410   23.1620   18.2220 C   0  0  0  0  0  0  0  0  0  0  0  0
   -3.3950   22.4710   17.9340 C   0  0  0  0  0  0  0  0  0  0  0  0
   -2.3790   22.2590   19.0720 C   0  0  0  0  0  0  0  0  0  0  0  0
   -1.0750   21.9000   18.7190 C   0  0  0  0  0  0  0  0  0  0  0  0
   -0.0960   21.6400   19.6220 N   0  0  0  0  0  0  0  0  0  0  0  0
   -0.4090   21.7320   20.9380 C   0  0  0  0  0  0  0  0  0  0  0  0
   -2.6670   22.3650   20.4420 C   0  0  0  0  0  0  0  0  0  0  0  0
   -1.6780   22.0990   21.3940 C   0  0  0  0  0  0  0  0  0  0  0  0
   -2.0080   22.0870   22.8420 C   0  0  0  0  0  0  0  0  0  0  0  0
   -2.9560   21.3040   23.3160 N   0  0  0  0  0  0  0  0  0  0  0  0
   -2.9530   21.3360   24.6930 N   0  0  0  0  0  0  0  0  0  0  0  0
   -1.9680   22.1870   25.0440 C   0  0  0  0  0  0  0  0  0  0  0  0
   -1.4650   22.5800   26.2920 C   0  0  0  0  0  0  0  0  0  0  0  0
   -1.9850   22.0640   27.6200 C   0  0  0  0  0  0  0  0  0  0  0  0
   -0.4410   23.4620   26.3970 N   0  0  0  0  0  0  0  0  0  0  0  0
   -1.3710   22.7400   23.8950 N   0  0  0  0  0  0  0  0  0  0  0  0
   -0.3900   23.6820   23.9640 C   0  0  0  0  0  0  0  0  0  0  0  0
    0.1480   24.3760   22.8360 C   0  0  0  0  0  0  0  0  0  0  0  0
    1.1600   25.3300   23.0180 C   0  0  0  0  0  0  0  0  0  0  0  0
    1.6270   25.6100   24.3030 C   0  0  0  0  0  0  0  0  0  0  0  0
    1.1020   24.9720   25.4180 C   0  0  0  0  0  0  0  0  0  0  0  0
    0.0820   24.0150   25.2710 C   0  0  0  0  0  0  0  0  0  0  0  0
    1.7590   26.1290   21.8550 C   0  0  0  0  0  0  0  0  0  0  0  0
    2.5760   25.3940   20.8730 N   0  0  0  0  0  0  0  0  0  0  0  0
    3.1220   24.1200   21.3550 C   0  0  0  0  0  0  0  0  0  0  0  0
    4.0100   23.4550   20.2850 C   0  0  0  0  0  0  0  0  0  0  0  0
    5.0670   24.3270   19.8990 O   0  0  0  0  0  0  0  0  0  0  0  0
    4.5930   25.5730   19.3960 C   0  0  0  0  0  0  0  0  0  0  0  0
    3.6640   26.2730   20.4140 C   0  0  0  0  0  0  0  0  0  0  0  0
   -6.5850   27.2350   18.8580 H   0  0  0  0  0  0  0  0  0  0  0  0
   -4.8590   27.1740   19.1750 H   0  0  0  0  0  0  0  0  0  0  0  0
   -5.4670   26.9760   17.5300 H   0  0  0  0  0  0  0  0  0  0  0  0
   -3.8030   24.8460   19.2150 H   0  0  0  0  0  0  0  0  0  0  0  0
   -4.1400   25.1110   17.5240 H   0  0  0  0  0  0  0  0  0  0  0  0
   -5.3650   23.0040   17.3440 H   0  0  0  0  0  0  0  0  0  0  0  0
   -5.2880   22.6930   19.0400 H   0  0  0  0  0  0  0  0  0  0  0  0
   -0.7970   21.8030   17.6800 H   0  0  0  0  0  0  0  0  0  0  0  0
    0.3790   21.4830   21.6340 H   0  0  0  0  0  0  0  0  0  0  0  0
   -3.6550   22.6230   20.7890 H   0  0  0  0  0  0  0  0  0  0  0  0
   -1.1880   21.5780   28.1830 H   0  0  0  0  0  0  0  0  0  0  0  0
   -2.3850   22.8830   28.2180 H   0  0  0  0  0  0  0  0  0  0  0  0
   -2.7810   21.3320   27.4770 H   0  0  0  0  0  0  0  0  0  0  0  0
   -0.2280   24.1970   21.8420 H   0  0  0  0  0  0  0  0  0  0  0  0
    2.3980   26.3530   24.4490 H   0  0  0  0  0  0  0  0  0  0  0  0
    1.4530   25.2230   26.4080 H   0  0  0  0  0  0  0  0  0  0  0  0
    2.3490   26.9440   22.2800 H   0  0  0  0  0  0  0  0  0  0  0  0
    0.9370   26.6050   21.3200 H   0  0  0  0  0  0  0  0  0  0  0  0
    2.2970   23.4440   21.5620 H   0  0  0  0  0  0  0  0  0  0  0  0
    3.6770   24.2510   22.2850 H   0  0  0  0  0  0  0  0  0  0  0  0
    3.4150   23.1740   19.4140 H   0  0  0  0  0  0  0  0  0  0  0  0
    4.4260   22.5280   20.6730 H   0  0  0  0  0  0  0  0  0  0  0  0
    4.0810   25.4260   18.4440 H   0  0  0  0  0  0  0  0  0  0  0  0
    5.4510   26.2110   19.1820 H   0  0  0  0  0  0  0  0  0  0  0  0
    4.2660   26.6080   21.2610 H   0  0  0  0  0  0  0  0  0  0  0  0
    3.2450   27.1720   19.9590 H   0  0  0  0  0  0  0  0  0  0  0  0
   -2.9010   22.9880   17.1110 H   0  0  0  0  0  0  0  0  0  0  0  0
   -3.5840   21.5150   17.4460 H   0  0  0  0  0  0  0  0  0  0  0  0
  1  2  1  0  0  0  0
  1 33  1  0  0  0  0
  1 34  1  0  0  0  0
  1 35  1  0  0  0  0
  2  3  1  0  0  0  0
  3  4  1  0  0  0  0
  3 36  1  0  0  0  0
  3 37  1  0  0  0  0
  4  5  1  0  0  0  0
  4 38  1  0  0  0  0
  4 39  1  0  0  0  0
  5  6  1  0  0  0  0
  5 59  1  0  0  0  0
  5 60  1  0  0  0  0
  6  7  2  0  0  0  0
  6 10  1  0  0  0  0
  7  8  1  0  0  0  0
  7 40  1  0  0  0  0
  8  9  2  0  0  0  0
  9 11  1  0  0  0  0
  9 41  1  0  0  0  0
 10 11  2  0  0  0  0
 10 42  1  0  0  0  0
 11 12  1  0  0  0  0
 12 13  2  0  0  0  0
 12 19  1  0  0  0  0
 13 14  1  0  0  0  0
 14 15  2  0  0  0  0
 15 16  1  0  0  0  0
 15 19  1  0  0  0  0
 16 17  1  0  0  0  0
 16 18  2  0  0  0  0
 17 43  1  0  0  0  0
 17 44  1  0  0  0  0
 17 45  1  0  0  0  0
 18 25  1  0  0  0  0
 19 20  1  0  0  0  0
 20 21  2  0  0  0  0
 20 25  1  0  0  0  0
 21 22  1  0  0  0  0
 21 46  1  0  0  0  0
 22 23  2  0  0  0  0
 22 26  1  0  0  0  0
 23 24  1  0  0  0  0
 23 47  1  0  0  0  0
 24 25  2  0  0  0  0
 24 48  1  0  0  0  0
 26 27  1  0  0  0  0
 26 49  1  0  0  0  0
 26 50  1  0  0  0  0
 27 28  1  0  0  0  0
 27 32  1  0  0  0  0
 28 29  1  0  0  0  0
 28 51  1  0  0  0  0
 28 52  1  0  0  0  0
 29 30  1  0  0  0  0
 29 53  1  0  0  0  0
 29 54  1  0  0  0  0
 30 31  1  0  0  0  0
 31 32  1  0  0  0  0
 31 55  1  0  0  0  0
 31 56  1  0  0  0  0
 32 57  1  0  0  0  0
 32 58  1  0  0  0  0
M  END
$$$$
