lig_18635-1
     RDKit          3D

 44 45  0  0  0  0  0  0  0  0999 V2000
   23.9500   12.4060   30.2950 C   0  0  0  0  0  0  0  0  0  0  0  0
   23.2520   11.0660   30.5400 C   0  0  0  0  0  0  0  0  0  0  0  0
   22.1060   11.3120   31.3510 O   0  0  0  0  0  0  0  0  0  0  0  0
   21.3260   10.2500   31.7750 C   0  0  0  0  0  0  0  0  0  0  0  0
   21.7080    9.0020   31.3910 N   0  0  0  0  0  0  0  0  0  0  0  0
   20.9480    7.9620   31.7630 C   0  0  0  0  0  0  0  0  0  0  0  0
   19.8110    8.0880   32.5460 C   0  0  0  0  0  0  0  0  0  0  0  0
   19.4250    9.3590   32.9350 C   0  0  0  0  0  0  0  0  0  0  0  0
   18.2610    9.4250   33.6910 N   0  0  0  0  0  0  0  0  0  0  0  0
   20.1830   10.4770   32.5510 C   0  0  0  0  0  0  0  0  0  0  0  0
   19.8270   11.8460   32.9060 C   0  0  0  0  0  0  0  0  0  0  0  0
   19.5530   12.9360   33.1820 N   0  0  0  0  0  0  0  0  0  0  0  0
   21.4600    6.7900   31.2550 N   0  0  0  0  0  0  0  0  0  0  0  0
   20.8690    5.6160   31.0260 C   0  0  0  0  0  0  0  0  0  0  0  0
   19.7070    5.3520   31.3320 O   0  0  0  0  0  0  0  0  0  0  0  0
   21.6960    4.6000   30.2410 C   0  0  0  0  0  0  0  0  0  0  0  0
   23.0920    4.3590   30.8150 C   0  0  0  0  0  0  0  0  0  0  0  0
   23.3320    3.5010   31.9080 C   0  0  0  0  0  0  0  0  0  0  0  0
   22.2240    2.7560   32.6420 C   0  0  0  0  0  0  0  0  0  0  0  0
   24.6380    3.3400   32.3790 C   0  0  0  0  0  0  0  0  0  0  0  0
   25.7010    4.0060   31.7730 C   0  0  0  0  0  0  0  0  0  0  0  0
   25.4680    4.8550   30.6930 C   0  0  0  0  0  0  0  0  0  0  0  0
   26.6270    5.5870   30.0440 C   0  0  0  0  0  0  0  0  0  0  0  0
   24.1670    5.0300   30.2230 C   0  0  0  0  0  0  0  0  0  0  0  0
   24.8370   12.2780   29.6760 H   0  0  0  0  0  0  0  0  0  0  0  0
   23.2830   13.1010   29.7840 H   0  0  0  0  0  0  0  0  0  0  0  0
   24.2550   12.8660   31.2340 H   0  0  0  0  0  0  0  0  0  0  0  0
   22.9560   10.6140   29.5900 H   0  0  0  0  0  0  0  0  0  0  0  0
   23.9390   10.3780   31.0380 H   0  0  0  0  0  0  0  0  0  0  0  0
   19.2320    7.2270   32.8340 H   0  0  0  0  0  0  0  0  0  0  0  0
   17.8090    8.5700   34.0030 H   0  0  0  0  0  0  0  0  0  0  0  0
   17.8690   10.3270   33.9520 H   0  0  0  0  0  0  0  0  0  0  0  0
   22.4120    6.9080   30.9610 H   0  0  0  0  0  0  0  0  0  0  0  0
   21.1580    3.6550   30.1890 H   0  0  0  0  0  0  0  0  0  0  0  0
   21.7530    4.9680   29.2240 H   0  0  0  0  0  0  0  0  0  0  0  0
   21.3550    2.5380   32.0260 H   0  0  0  0  0  0  0  0  0  0  0  0
   22.5860    1.8000   33.0230 H   0  0  0  0  0  0  0  0  0  0  0  0
   21.8980    3.3490   33.4960 H   0  0  0  0  0  0  0  0  0  0  0  0
   24.8350    2.6930   33.2230 H   0  0  0  0  0  0  0  0  0  0  0  0
   26.7050    3.8660   32.1480 H   0  0  0  0  0  0  0  0  0  0  0  0
   27.2820    6.0180   30.8020 H   0  0  0  0  0  0  0  0  0  0  0  0
   27.2130    4.8990   29.4340 H   0  0  0  0  0  0  0  0  0  0  0  0
   26.2820    6.4020   29.4050 H   0  0  0  0  0  0  0  0  0  0  0  0
   23.9870    5.7100   29.4030 H   0  0  0  0  0  0  0  0  0  0  0  0
  1  2  1  0
  1 25  1  0
  1 26  1  0
  1 27  1  0
  2  3  1  0
  2 28  1  0
  2 29  1  0
  3  4  1  0
  4 10  2  0
  4  5  1  0
  5  6  2  0
  6  7  1  0
  6 13  1  0
  7  8  2  0
  7 30  1  0
  8  9  1  0
  8 10  1  0
  9 31  1  0
  9 32  1  0
 10 11  1  0
 11 12  3  0
 13 14  1  0
 13 33  1  0
 14 15  2  0
 14 16  1  0
 16 17  1  0
 16 34  1  0
 16 35  1  0
 17 24  1  0
 17 18  2  0
 18 19  1  0
 18 20  1  0
 19 36  1  0
 19 37  1  0
 19 38  1  0
 20 21  2  0
 20 39  1  0
 21 22  1  0
 21 40  1  0
 22 23  1  0
 22 24  2  0
 23 41  1  0
 23 42  1  0
 23 43  1  0
 24 44  1  0
M  END
$$$$
