1d
  -OEChem-09261917143D

 52 54  0     1  0  0  0  0  0999 V2000
   18.2720  -13.2440   21.7070 N   0  0  0  0  0  0  0  0  0  0  0  0
   18.0750  -11.9480   21.0290 C   0  0  2  0  0  0  0  0  0  0  0  0
   17.4020  -13.7830   22.5960 C   0  0  0  0  0  0  0  0  0  0  0  0
   16.4030  -13.1700   22.9770 O   0  0  0  0  0  0  0  0  0  0  0  0
   16.6730  -11.7590   20.4010 C   0  0  0  0  0  0  0  0  0  0  0  0
   16.1780  -12.6530   19.7120 O   0  0  0  0  0  0  0  0  0  0  0  0
   19.1740  -11.8990   19.9570 C   0  0  0  0  0  0  0  0  0  0  0  0
   17.6530  -15.1830   23.1890 C   0  0  2  0  0  0  0  0  0  0  0  0
   16.0510  -10.6000   20.6440 N   0  0  0  0  0  0  0  0  0  0  0  0
   20.2730  -12.8190   20.4500 C   0  0  0  0  0  0  0  0  0  0  0  0
   16.4100  -15.9690   23.1120 N   0  3  0  0  0  0  0  0  0  0  0  0
   18.1390  -15.1140   24.6550 C   0  0  0  0  0  0  0  0  0  0  0  0
   14.7140  -10.2250   20.2030 C   0  0  0  0  0  0  0  0  0  0  0  0
   19.5530  -13.8450   21.3180 C   0  0  0  0  0  0  0  0  0  0  0  0
   19.5630  -14.6150   24.8260 C   0  0  0  0  0  0  0  0  0  0  0  0
   13.6470  -10.3700   21.2730 C   0  0  0  0  0  0  0  0  0  0  0  0
   20.6570  -15.4490   24.5150 C   0  0  0  0  0  0  0  0  0  0  0  0
   12.9110  -11.5670   21.3980 C   0  0  0  0  0  0  0  0  0  0  0  0
   21.9740  -14.9610   24.6350 C   0  0  0  0  0  0  0  0  0  0  0  0
   11.8980  -11.6760   22.3730 C   0  0  0  0  0  0  0  0  0  0  0  0
   22.2010  -13.6400   25.0640 C   0  0  0  0  0  0  0  0  0  0  0  0
   11.6220  -10.5920   23.2310 C   0  0  0  0  0  0  0  0  0  0  0  0
   21.1130  -12.8170   25.4040 C   0  0  0  0  0  0  0  0  0  0  0  0
   12.3740   -9.4060   23.1280 C   0  0  0  0  0  0  0  0  0  0  0  0
   19.8040  -13.3100   25.2940 C   0  0  0  0  0  0  0  0  0  0  0  0
   13.3770   -9.2950   22.1450 C   0  0  0  0  0  0  0  0  0  0  0  0
   18.2540  -11.1640   21.7630 H   0  0  0  0  0  0  0  0  0  0  0  0
   18.8040  -12.2580   18.9950 H   0  0  0  0  0  0  0  0  0  0  0  0
   19.5470  -10.8910   19.8140 H   0  0  0  0  0  0  0  0  0  0  0  0
   18.3810  -15.7380   22.5980 H   0  0  0  0  0  0  0  0  0  0  0  0
   16.5670   -9.8980   21.1740 H   0  0  0  0  0  0  0  0  0  0  0  0
   20.8420  -13.2750   19.6390 H   0  0  0  0  0  0  0  0  0  0  0  0
   20.9740  -12.2530   21.0650 H   0  0  0  0  0  0  0  0  0  0  0  0
   16.5520  -16.8850   23.5110 H   0  0  0  0  0  0  0  0  0  0  0  0
   15.6860  -15.4780   23.6240 H   0  0  0  0  0  0  0  0  0  0  0  0
   16.1260  -16.0530   22.1480 H   0  0  0  0  0  0  0  0  0  0  0  0
   17.4610  -14.4950   25.2470 H   0  0  0  0  0  0  0  0  0  0  0  0
   18.0900  -16.1070   25.1050 H   0  0  0  0  0  0  0  0  0  0  0  0
   14.7520   -9.1720   19.9320 H   0  0  0  0  0  0  0  0  0  0  0  0
   14.4210  -10.7710   19.3040 H   0  0  0  0  0  0  0  0  0  0  0  0
   20.1690  -14.1080   22.1760 H   0  0  0  0  0  0  0  0  0  0  0  0
   19.3680  -14.7510   20.7400 H   0  0  0  0  0  0  0  0  0  0  0  0
   20.4940  -16.4620   24.1750 H   0  0  0  0  0  0  0  0  0  0  0  0
   13.1240  -12.4030   20.7460 H   0  0  0  0  0  0  0  0  0  0  0  0
   22.8120  -15.6000   24.3980 H   0  0  0  0  0  0  0  0  0  0  0  0
   11.3350  -12.5940   22.4710 H   0  0  0  0  0  0  0  0  0  0  0  0
   23.2100  -13.2640   25.1460 H   0  0  0  0  0  0  0  0  0  0  0  0
   21.2690  -11.8090   25.7590 H   0  0  0  0  0  0  0  0  0  0  0  0
   12.0630   -7.8310   24.4710 I   0  0  0  0  0  0  0  0  0  0  0  0
   18.9890  -12.6800   25.5910 H   0  0  0  0  0  0  0  0  0  0  0  0
   13.9550   -8.3870   22.0790 H   0  0  0  0  0  0  0  0  0  0  0  0
   10.8490  -10.6820   23.9820 H   0  0  0  0  0  0  0  0  0  0  0  0
  1  2  1  0  0  0  0
  1 14  1  0  0  0  0
  1  3  1  0  0  0  0
  2  5  1  0  0  0  0
  2  7  1  0  0  0  0
  2 27  1  0  0  0  0
  3  8  1  0  0  0  0
  3  4  2  0  0  0  0
  5  6  2  0  0  0  0
  5  9  1  0  0  0  0
  7 10  1  0  0  0  0
  7 28  1  0  0  0  0
  7 29  1  0  0  0  0
  8 11  1  0  0  0  0
  8 12  1  0  0  0  0
  8 30  1  0  0  0  0
  9 13  1  0  0  0  0
  9 31  1  0  0  0  0
 10 14  1  0  0  0  0
 10 32  1  0  0  0  0
 10 33  1  0  0  0  0
 11 34  1  0  0  0  0
 11 35  1  0  0  0  0
 11 36  1  0  0  0  0
 12 15  1  0  0  0  0
 12 37  1  0  0  0  0
 12 38  1  0  0  0  0
 13 16  1  0  0  0  0
 13 39  1  0  0  0  0
 13 40  1  0  0  0  0
 14 41  1  0  0  0  0
 14 42  1  0  0  0  0
 15 17  1  0  0  0  0
 15 25  2  0  0  0  0
 16 18  1  0  0  0  0
 16 26  2  0  0  0  0
 17 19  2  0  0  0  0
 17 43  1  0  0  0  0
 18 20  2  0  0  0  0
 18 44  1  0  0  0  0
 19 21  1  0  0  0  0
 19 45  1  0  0  0  0
 20 22  1  0  0  0  0
 20 46  1  0  0  0  0
 21 23  2  0  0  0  0
 21 47  1  0  0  0  0
 22 24  2  0  0  0  0
 22 52  1  0  0  0  0
 23 25  1  0  0  0  0
 23 48  1  0  0  0  0
 24 26  1  0  0  0  0
 24 49  1  0  0  0  0
 25 50  1  0  0  0  0
 26 51  1  0  0  0  0
M  CHG  1  11   1
M  END
$$$$
