# Molecule written by the XED library from Cresset
@<TRIPOS>MOLECULE
CatS_176
    96    100      1
SMALL
USER_CHARGES
@<TRIPOS>ATOM
      1  C3          1.3871   17.6881   -4.5414 C.3       1 MOL1       -0.0891
      2  N1          0.2859   17.5008   -5.3040 C.3       1 MOL1       -0.0173
      3  C4         -0.1249   16.1700   -5.7827 C.3       1 MOL1       -0.0340
      4  C5         -1.1913   15.5857   -4.8379 C.3       1 MOL1       -0.0749
      5  C6         -1.6668   14.2213   -5.3740 C.3       1 MOL1       -0.0622
      6  N2         -2.2336   14.3439   -6.7310 N.4       1 MOL1       -0.2282
      7  C7         -1.2231   14.8909   -7.6591 C.3       1 MOL1       -0.0622
      8  C8         -0.7222   16.2748   -7.1989 C.3       1 MOL1       -0.0749
      9  C9         -2.7051   13.0260   -7.1971 C.3       1 MOL1       -0.0328
     10  C10        -3.4130   13.0568   -8.5708 C.3       1 MOL1        0.0191
     11  C11        -3.3396   11.6550   -9.2001 C.3       1 MOL1        0.0979
     12  N3         -4.3392   10.6961   -8.7087 N.pl3     1 MOL1       -0.0670
     13  C12        -5.5310   10.3251   -9.2410 C.ar      1 MOL1        0.0572
     14  C13        -6.2052    9.4821   -8.4579 C.ar      1 MOL1       -0.0684
     15  C14        -5.3400    9.2805   -7.3580 C.ar      1 MOL1        0.0392
     16  N4         -4.2646   10.0227   -7.5357 N.2       1 MOL1       -0.2943
     17  C15        -5.5281    8.4128   -6.2062 C.ar      1 MOL1       -0.0066
     18  C16        -4.4677    7.7389   -5.6282 C.ar      1 MOL1       -0.0846
     19  C17        -4.6602    6.9418   -4.5283 C.ar      1 MOL1       -0.0687
     20  C18        -5.9103    6.7700   -3.9697 C.ar      1 MOL1        0.0171
     21  C19        -6.9758    7.4401   -4.5580 C.ar      1 MOL1        0.0480
     22  C20        -6.7839    8.2537   -5.6506 C.ar      1 MOL1       -0.0655
     23  S1         -8.6624    7.2888   -3.9528 S.3       1 MOL1       -0.1783
     24  C21        -9.2127    8.9474   -3.4728 C.3       1 MOL1       -0.0087
     25  C22        -8.0195    9.8150   -3.0206 C.3       1 MOL1       -0.0441
     26  N5         -8.4072   10.8678   -2.0650 N.4       1 MOL1       -0.2282
     27  C23        -9.7689   11.3444   -2.3739 C.3       1 MOL1       -0.0507
     28  C24       -10.2313   12.4114   -1.3619 C.3       1 MOL1       -0.0181
     29  C25        -9.2441   13.5921   -1.3597 C.3       1 MOL1        0.1870
     30  C26        -7.8200   13.0741   -1.0856 C.3       1 MOL1       -0.0181
     31  C27        -7.4531   11.9951   -2.1228 C.3       1 MOL1       -0.0507
     32  C28        -5.9448    5.8567   -2.7423 C.3       1 MOL1        0.4149
     33  F1         -4.9473    4.8881   -2.7813 F         1 MOL1       -0.1514
     34  F2         -7.1419    5.1655   -2.5932 F         1 MOL1       -0.1514
     35  F3         -5.7380    6.5909   -1.5778 F         1 MOL1       -0.1514
     36  C29        -7.5839    8.9487   -8.8239 C.3       1 MOL1        0.1169
     37  N6         -8.2562    9.7458   -9.8749 N.3       1 MOL1       -0.4606
     38  C30        -7.3183    9.9449  -11.0008 C.3       1 MOL1        0.0844
     39  C31        -6.0941   10.7929  -10.5730 C.3       1 MOL1       -0.0158
     40  S2         -9.7909    9.3103  -10.1697 S.3       1 MOL1        0.4316
     41  O3         -9.8658    7.9422   -9.7662 O.2       1 MOL1       -0.3139
     42  O4        -10.0690    9.5800  -11.5450 O.2       1 MOL1       -0.3139
     43  C32       -10.9189   10.2892   -9.1311 C.3       1 MOL1        0.0421
     44  H33        -9.5605   14.3841   -0.5171 F         1 MOL1       -0.1808
     45  H          -0.6190   18.0802   -4.7689 O.3       1 MOL1       -0.4397
     46  H34        -9.2639   14.1291   -2.4332 F         1 MOL1       -0.1808
     47  H           0.4901   18.1901   -6.2667 C.3       1 MOL1       -0.0891
     48  H18        -4.5659   13.3631   -8.4240 O.3       1 MOL1       -0.4408
     49  H19        -2.8849   13.8321   -9.3199 H         1 MOL1        0.0680
     50  H7          0.8138   15.4249   -5.8330 H         1 MOL1        0.0511
     51  H8         -0.7251   15.4541   -3.7392 H         1 MOL1        0.0470
     52  H9         -2.1308   16.3300   -4.7860 H         1 MOL1        0.0470
     53  H10        -2.5057   13.8240   -4.6130 H         1 MOL1        0.0529
     54  H11        -0.7427   13.4539   -5.3882 H         1 MOL1        0.0529
     55  H12        -1.7002   15.0319   -8.7498 H         1 MOL1        0.0529
     56  H13        -0.2801   14.1496   -7.7231 H         1 MOL1        0.0529
     57  H14         0.1171   16.6710   -7.9592 H         1 MOL1        0.0470
     58  H15        -1.6449   17.0421   -7.1909 H         1 MOL1        0.0470
     59  H16        -3.5302   12.6209   -6.4257 H         1 MOL1        0.0549
     60  H17        -1.8131   12.2239   -7.2247 H         1 MOL1        0.0549
     61  H20        -3.4749   11.7687  -10.3870 H         1 MOL1        0.0624
     62  H21        -2.2549   11.1928   -8.9840 H         1 MOL1        0.0624
     63  H22        -3.5487    7.8381   -6.0090 H         1 MOL1        0.0910
     64  H23        -3.8721    6.4759   -4.1253 H         1 MOL1        0.0908
     65  H24        -7.5648    8.7322   -6.0516 H         1 MOL1        0.0929
     66  H25        -9.7313    9.4498   -4.4320 H         1 MOL1        0.0553
     67  H26       -10.0244    8.8691   -2.5915 H         1 MOL1        0.0553
     68  H27        -7.5947   10.3442   -4.0120 H         1 MOL1        0.0547
     69  H28        -7.1415    9.1330   -2.5672 H         1 MOL1        0.0547
     70  H29       -10.5488   10.4349   -2.3162 H         1 MOL1        0.0529
     71  H30        -9.7885   11.8010   -3.4838 H         1 MOL1        0.0529
     72  H31       -10.2650   11.9167   -0.2701 H         1 MOL1        0.0526
     73  H32       -11.3257   12.8011   -1.6600 H         1 MOL1        0.0526
     74  H35        -7.0420   13.9839   -1.1571 H         1 MOL1        0.0526
     75  H36        -7.7745   12.5991    0.0151 H         1 MOL1        0.0526
     76  H37        -7.4589   12.4815   -3.2209 H         1 MOL1        0.0529
     77  H38        -6.3403   11.6216   -1.8748 H         1 MOL1        0.0529
     78  H39        -7.4860    7.8080   -9.1821 H         1 MOL1        0.0628
     79  H40        -8.2802    8.9949   -7.8457 H         1 MOL1        0.0628
     80  H41        -6.9429    8.8782  -11.4009 H         1 MOL1        0.0601
     81  H42        -7.8698   10.5231  -11.8949 H         1 MOL1        0.0601
     82  H43        -6.4275   11.9410  -10.4691 H         1 MOL1        0.0516
     83  H44        -5.2559   10.6982  -11.4261 H         1 MOL1        0.0516
     84  H45       -11.0143   11.4131   -9.5422 H         1 MOL1        0.0588
     85  H46       -12.0136    9.7991   -9.1411 H         1 MOL1        0.0588
     86  H47       -10.5204   10.3164   -7.9994 H         1 MOL1        0.0588
     87  H          -2.9460   14.9137   -6.7056 H         1 MOL1        0.1921
     88  H          -8.4052   10.5167   -1.2234 H         1 MOL1        0.1922
     89  H           2.3901   17.3078   -5.0851 H         1 MOL1        0.0457
     90  H           1.2990   16.9586   -3.5907 H         1 MOL1        0.0457
     91  H           1.6174   18.7805   -4.0893 H         1 MOL1        0.0457
     92  H           1.3911   17.7595   -6.9400 H         1 MOL1        0.0457
     93  H          -0.3905   18.5739   -6.9904 H         1 MOL1        0.0457
     94  H           0.9697   19.2749   -6.0429 H         1 MOL1        0.0457
     95  H          -1.4505   18.0963   -5.3363 H         1 MOL1        0.3291
     96  H          -5.0642   13.3432   -9.2977 H         1 MOL1        0.3291
@<TRIPOS>BOND
     1      1      2 1 
     2      2      3 1 
     3      3      4 1 
     4      3      8 1 
     5      4      5 1 
     6      5      6 1 
     7      6      7 1 
     8      6      9 1 
     9      7      8 1 
    10      9     10 1 
    11     10     11 1 
    12     10     48 1 
    13     11     12 1 
    14     12     13 ar
    15     12     16 ar
    16     13     14 ar
    17     13     39 1 
    18     14     15 ar
    19     14     36 1 
    20     15     16 ar
    21     15     17 1 
    22     17     18 ar
    23     17     22 ar
    24     18     19 ar
    25     19     20 ar
    26     20     21 ar
    27     20     32 1 
    28     21     22 ar
    29     21     23 1 
    30     23     24 1 
    31     24     25 1 
    32     25     26 1 
    33     26     27 1 
    34     26     31 1 
    35     27     28 1 
    36     28     29 1 
    37     29     30 1 
    38     29     44 1 
    39     29     46 1 
    40     30     31 1 
    41     32     33 1 
    42     32     34 1 
    43     32     35 1 
    44     36     37 1 
    45     37     38 1 
    46     37     40 1 
    47     38     39 1 
    48     40     41 2 
    49     40     42 2 
    50     40     43 1 
    51     45      2 1 
    52     47      2 1 
    53      3     50 1 
    54      4     51 1 
    55      4     52 1 
    56      5     53 1 
    57      5     54 1 
    58      7     55 1 
    59      7     56 1 
    60      8     57 1 
    61      8     58 1 
    62      9     59 1 
    63      9     60 1 
    64     10     49 1 
    65     11     61 1 
    66     11     62 1 
    67     18     63 1 
    68     19     64 1 
    69     22     65 1 
    70     24     66 1 
    71     24     67 1 
    72     25     68 1 
    73     25     69 1 
    74     27     70 1 
    75     27     71 1 
    76     28     72 1 
    77     28     73 1 
    78     30     74 1 
    79     30     75 1 
    80     31     76 1 
    81     31     77 1 
    82     36     78 1 
    83     36     79 1 
    84     38     80 1 
    85     38     81 1 
    86     39     82 1 
    87     39     83 1 
    88     43     84 1 
    89     43     85 1 
    90     43     86 1 
    91     48     96 1 
    92     87      6 1 
    93     88     26 1 
    94     89      1 1 
    95     90      1 1 
    96     91      1 1 
    97     92     47 1 
    98     93     47 1 
    99     94     47 1 
   100     95     45 1 
@<TRIPOS>SUBSTRUCTURE
     1 MOL1         1 MOLECULE          1 A
