@<TRIPOS>MOLECULE
*****
   59    62     1     0     0
SMALL
GASTEIGER


@<TRIPOS>ATOM
      1 C             1.8409    1.7826   -3.1400 C.3      1 UNL1       0.0788
      2 O             1.4309    1.3545   -1.8182 O.3      1 UNL1      -0.4951
      3 C             0.7216    0.1866   -1.6127 C.ar     1 UNL1       0.1202
      4 C             0.6793   -0.8313   -2.5620 C.ar     1 UNL1      -0.0182
      5 C            -0.1551   -1.9271   -2.3766 C.ar     1 UNL1      -0.0368
      6 C            -0.9338   -2.0774   -1.2173 C.ar     1 UNL1       0.0381
      7 N            -1.8582   -3.2023   -1.0541 N.am     1 UNL1      -0.2488
      8 C            -2.8518   -3.2573   -0.0939 C.2      1 UNL1       0.2870
      9 O            -3.1560   -4.3131    0.4253 O.2      1 UNL1      -0.2662
     10 C            -3.5489   -2.0200    0.3397 C.ar     1 UNL1       0.1896
     11 C            -3.6312   -0.8109   -0.3079 C.ar     1 UNL1      -0.0113
     12 C            -4.2482    0.0745    0.6161 C.ar     1 UNL1      -0.0231
     13 C            -4.5150   -0.6864    1.7193 C.ar     1 UNL1       0.0928
     14 O            -4.1934   -2.0126    1.5628 O.2      1 UNL1      -0.4583
     15 C            -1.4891   -4.5109   -1.7005 C.3      1 UNL1       0.1338
     16 C            -1.6354   -4.5840   -3.2350 C.2      1 UNL1       0.2385
     17 O            -0.7732   -5.0371   -3.9578 O.2      1 UNL1      -0.2734
     18 N            -2.7736   -4.1978   -3.8608 N.am     1 UNL1      -0.3132
     19 C            -4.0700   -3.7787   -3.3111 C.3      1 UNL1       0.0156
     20 C            -4.3823   -2.2882   -3.5769 C.3      1 UNL1      -0.0120
     21 C            -4.5167   -1.8469   -5.0382 C.ar     1 UNL1      -0.0432
     22 C            -4.7576   -0.4931   -5.2963 C.ar     1 UNL1      -0.0584
     23 C            -4.8473   -0.0186   -6.6047 C.ar     1 UNL1      -0.0588
     24 C            -4.6913   -0.8937   -7.6760 C.ar     1 UNL1      -0.0264
     25 C            -4.4688   -2.2450   -7.4308 C.ar     1 UNL1       0.1237
     26 F            -4.3181   -3.0938   -8.4622 F        1 UNL1      -0.2055
     27 C            -4.3944   -2.7250   -6.1246 C.ar     1 UNL1      -0.0232
     28 C            -0.1731   -5.0638   -1.1144 C.ar     1 UNL1       0.0002
     29 C             1.0759   -4.9919   -1.7499 C.ar     1 UNL1      -0.0534
     30 C             2.1967   -5.5347   -1.1266 C.ar     1 UNL1      -0.0433
     31 C             2.0602   -6.1054    0.1354 C.ar     1 UNL1       0.0276
     32 N             0.8768   -6.1641    0.7810 N.ar     1 UNL1      -0.2629
     33 C            -0.2080   -5.6547    0.1546 C.ar     1 UNL1       0.0330
     34 C            -0.7346   -1.1241   -0.2012 C.ar     1 UNL1      -0.0368
     35 C             0.0271    0.0225   -0.4198 C.ar     1 UNL1      -0.0182
     36 H             2.2879    2.7774   -3.0716 H        1 UNL1       0.0660
     37 H             0.9669    1.8206   -3.7973 H        1 UNL1       0.0660
     38 H             2.5779    1.0812   -3.5405 H        1 UNL1       0.0660
     39 H             1.2743   -0.7757   -3.4687 H        1 UNL1       0.0655
     40 H            -0.1651   -2.6543   -3.1728 H        1 UNL1       0.0637
     41 H            -3.2351   -0.5358   -1.2774 H        1 UNL1       0.0657
     42 H            -4.4106    1.1390    0.4878 H        1 UNL1       0.0649
     43 H            -4.9192   -0.4378    2.6942 H        1 UNL1       0.1029
     44 H            -2.2465   -5.2492   -1.4296 H        1 UNL1       0.0652
     45 H            -2.7545   -4.2668   -4.8670 H        1 UNL1       0.1488
     46 H            -4.8484   -4.3888   -3.7771 H        1 UNL1       0.0465
     47 H            -4.1090   -3.9775   -2.2406 H        1 UNL1       0.0465
     48 H            -5.3095   -2.0372   -3.0552 H        1 UNL1       0.0328
     49 H            -3.5934   -1.6906   -3.1206 H        1 UNL1       0.0328
     50 H            -4.8728    0.2053   -4.4703 H        1 UNL1       0.0620
     51 H            -5.0317    1.0369   -6.7902 H        1 UNL1       0.0619
     52 H            -4.7458   -0.5249   -8.6976 H        1 UNL1       0.0646
     53 H            -4.2319   -3.7877   -5.9772 H        1 UNL1       0.0649
     54 H             1.2013   -4.5291   -2.7226 H        1 UNL1       0.0622
     55 H             3.1667   -5.5107   -1.6171 H        1 UNL1       0.0633
     56 H             2.9139   -6.5290    0.6611 H        1 UNL1       0.0829
     57 H            -1.1349   -5.7270    0.7179 H        1 UNL1       0.0833
     58 H            -1.2161   -1.2231    0.7670 H        1 UNL1       0.0637
     59 H             0.0699    0.7979    0.3419 H        1 UNL1       0.0655
@<TRIPOS>BOND
     1     1     2    1
     2     2     3    1
     3     3     4   ar
     4     4     5   ar
     5     5     6   ar
     6     6     7    1
     7     7     8   am
     8     8     9    2
     9     8    10    1
    10    10    11   ar
    11    11    12   ar
    12    12    13   ar
    13    13    14   ar
    14     7    15    1
    15    15    16    1
    16    16    17    2
    17    16    18   am
    18    18    19    1
    19    19    20    1
    20    20    21    1
    21    21    22   ar
    22    22    23   ar
    23    23    24   ar
    24    24    25   ar
    25    25    26    1
    26    25    27   ar
    27    15    28    1
    28    28    29   ar
    29    29    30   ar
    30    30    31   ar
    31    31    32   ar
    32    32    33   ar
    33     6    34   ar
    34    34    35   ar
    35    35     3   ar
    36    14    10   ar
    37    27    21   ar
    38    33    28   ar
    39     1    36    1
    40     1    37    1
    41     1    38    1
    42     4    39    1
    43     5    40    1
    44    11    41    1
    45    12    42    1
    46    13    43    1
    47    15    44    1
    48    18    45    1
    49    19    46    1
    50    19    47    1
    51    20    48    1
    52    20    49    1
    53    22    50    1
    54    23    51    1
    55    24    52    1
    56    27    53    1
    57    29    54    1
    58    30    55    1
    59    31    56    1
    60    33    57    1
    61    34    58    1
    62    35    59    1
@<TRIPOS>SUBSTRUCTURE
     1 UNL1        1 
