@<TRIPOS>MOLECULE
*****
   56    59     1     0     0
SMALL
GASTEIGER


@<TRIPOS>ATOM
      1 N            -6.6138    0.7349    3.2555 N.1      1 UNL1      -0.1909
      2 C            -5.8608    0.4979    2.4347 C.1      1 UNL1       0.0992
      3 C            -4.8956    0.2269    1.3965 C.ar     1 UNL1       0.0519
      4 C            -3.5355    0.2952    1.6766 C.ar     1 UNL1      -0.0426
      5 C            -2.6041    0.1877    0.6451 C.ar     1 UNL1      -0.0390
      6 C            -2.9865   -0.1644   -0.6517 C.ar     1 UNL1       0.0379
      7 N            -1.9892   -0.2636   -1.7138 N.am     1 UNL1      -0.2488
      8 C            -1.9610    0.6014   -2.7989 C.2      1 UNL1       0.2870
      9 O            -1.1019    0.5071   -3.6535 O.2      1 UNL1      -0.2662
     10 C            -3.1706    1.4071   -3.1026 C.ar     1 UNL1       0.1896
     11 C            -3.8637    2.2438   -2.2616 C.ar     1 UNL1      -0.0113
     12 C            -5.0412    2.6057   -2.9733 C.ar     1 UNL1      -0.0231
     13 C            -4.9313    1.9888   -4.1880 C.ar     1 UNL1       0.0928
     14 O            -3.7318    1.3430   -4.3649 O.2      1 UNL1      -0.4583
     15 C            -0.9554   -1.3964   -1.7058 C.3      1 UNL1       0.1338
     16 C            -0.8339   -2.1366   -3.0517 C.2      1 UNL1       0.2385
     17 O             0.2543   -2.3093   -3.5606 O.2      1 UNL1      -0.2734
     18 N            -1.8873   -2.8261   -3.5607 N.am     1 UNL1      -0.3132
     19 C            -3.3012   -2.7109   -3.1947 C.3      1 UNL1       0.0156
     20 C            -4.0325   -1.8705   -4.2594 C.3      1 UNL1      -0.0120
     21 C            -4.6437   -2.6683   -5.3968 C.ar     1 UNL1      -0.0432
     22 C            -4.1942   -3.9473   -5.7443 C.ar     1 UNL1      -0.0584
     23 C            -4.8278   -4.6614   -6.7570 C.ar     1 UNL1      -0.0588
     24 C            -5.9012   -4.0976   -7.4425 C.ar     1 UNL1      -0.0264
     25 C            -6.3287   -2.8120   -7.1211 C.ar     1 UNL1       0.1237
     26 F            -7.3590   -2.2604   -7.7847 F        1 UNL1      -0.2055
     27 C            -5.7024   -2.0978   -6.1047 C.ar     1 UNL1      -0.0232
     28 C            -0.9097   -2.4706   -0.5741 C.ar     1 UNL1       0.0002
     29 C            -0.6492   -2.1405    0.7609 C.ar     1 UNL1      -0.0534
     30 C            -0.6971   -3.1196    1.7512 C.ar     1 UNL1      -0.0433
     31 C            -0.8733   -4.4474    1.3809 C.ar     1 UNL1       0.0276
     32 N            -0.9361   -4.8256    0.0920 N.ar     1 UNL1      -0.2629
     33 C            -0.9377   -3.8560   -0.8478 C.ar     1 UNL1       0.0330
     34 C            -4.3653   -0.2634   -0.9045 C.ar     1 UNL1      -0.0390
     35 C            -5.3096   -0.0147    0.0912 C.ar     1 UNL1      -0.0426
     36 H            -3.1966    0.4880    2.6920 H        1 UNL1       0.0631
     37 H            -1.5714    0.4166    0.8647 H        1 UNL1       0.0636
     38 H            -3.6211    2.5173   -1.2412 H        1 UNL1       0.0657
     39 H            -5.8739    3.1934   -2.6017 H        1 UNL1       0.0649
     40 H            -5.6106    1.9114   -5.0305 H        1 UNL1       0.1029
     41 H             0.0000   -0.8667   -1.6385 H        1 UNL1       0.0652
     42 H            -1.7010   -3.4044   -4.3652 H        1 UNL1       0.1488
     43 H            -3.7506   -3.7043   -3.1186 H        1 UNL1       0.0465
     44 H            -3.4012   -2.2610   -2.2118 H        1 UNL1       0.0465
     45 H            -4.8364   -1.3104   -3.7854 H        1 UNL1       0.0328
     46 H            -3.3409   -1.1379   -4.6800 H        1 UNL1       0.0328
     47 H            -3.3574   -4.4083   -5.2270 H        1 UNL1       0.0620
     48 H            -4.4849   -5.6621   -7.0063 H        1 UNL1       0.0619
     49 H            -6.4008   -4.6587   -8.2270 H        1 UNL1       0.0646
     50 H            -6.0465   -1.0954   -5.8580 H        1 UNL1       0.0649
     51 H            -0.3758   -1.1376    1.0474 H        1 UNL1       0.0622
     52 H            -0.5813   -2.8550    2.7985 H        1 UNL1       0.0633
     53 H            -0.9106   -5.2490    2.1157 H        1 UNL1       0.0829
     54 H            -0.9126   -4.2646   -1.8528 H        1 UNL1       0.0833
     55 H            -4.7306   -0.4255   -1.9081 H        1 UNL1       0.0636
     56 H            -6.3683    0.0097   -0.1617 H        1 UNL1       0.0631
@<TRIPOS>BOND
     1     1     2    3
     2     2     3    1
     3     3     4   ar
     4     4     5   ar
     5     5     6   ar
     6     6     7    1
     7     7     8   am
     8     8     9    2
     9     8    10    1
    10    10    11   ar
    11    11    12   ar
    12    12    13   ar
    13    13    14   ar
    14    16    17    2
    15    16    18   am
    16    18    19    1
    17    19    20    1
    18    20    21    1
    19    21    22   ar
    20    22    23   ar
    21    23    24   ar
    22    24    25   ar
    23    25    26    1
    24    25    27   ar
    25    15    28    1
    26    28    29   ar
    27    29    30   ar
    28    30    31   ar
    29    31    32   ar
    30    32    33   ar
    31     6    34   ar
    32    34    35   ar
    33    35     3   ar
    34    14    10   ar
    35    27    21   ar
    36    33    28   ar
    37     4    36    1
    38     5    37    1
    39    11    38    1
    40    12    39    1
    41    13    40    1
    42    15    41    1
    43    18    42    1
    44    19    43    1
    45    19    44    1
    46    20    45    1
    47    20    46    1
    48    22    47    1
    49    23    48    1
    50    24    49    1
    51    27    50    1
    52    29    51    1
    53    30    52    1
    54    31    53    1
    55    33    54    1
    56    34    55    1
    57    35    56    1
    58    15    16    1
    59    15     7    1
@<TRIPOS>SUBSTRUCTURE
     1 UNL1        1 
