@<TRIPOS>MOLECULE
*****
   65    69     1     0     0
SMALL
GASTEIGER


@<TRIPOS>ATOM
      1 C             2.9776    1.9106    0.0712 C.3      1 UNL1      -0.0555
      2 C             1.5939    2.0423    0.7005 C.3      1 UNL1      -0.0070
      3 C             0.7017    1.0579    0.0084 C.ar     1 UNL1      -0.0413
      4 C            -0.1984    1.4715   -0.9703 C.ar     1 UNL1      -0.0563
      5 C            -1.0081    0.5470   -1.6295 C.ar     1 UNL1      -0.0400
      6 C            -0.8852   -0.8378   -1.4002 C.ar     1 UNL1       0.0379
      7 N            -1.7065   -1.8224   -2.1127 N.am     1 UNL1      -0.2488
      8 C            -2.0854   -3.0662   -1.6266 C.2      1 UNL1       0.2870
      9 O            -2.4601   -3.9410   -2.3772 O.2      1 UNL1      -0.2662
     10 C            -1.9213   -3.4236   -0.1989 C.ar     1 UNL1       0.1896
     11 C            -2.0384   -2.6193    0.9075 C.ar     1 UNL1      -0.0113
     12 C            -1.6672   -3.4411    2.0085 C.ar     1 UNL1      -0.0231
     13 C            -1.3940   -4.6675    1.4698 C.ar     1 UNL1       0.0928
     14 O            -1.6272   -4.7374    0.1201 O.2      1 UNL1      -0.4583
     15 C            -2.0756   -1.5077   -3.5443 C.3      1 UNL1       0.1338
     16 C            -3.5695   -1.7628   -3.8421 C.2      1 UNL1       0.2385
     17 O            -4.3756   -1.7295   -2.9328 O.2      1 UNL1      -0.2734
     18 N            -4.1110   -1.7461   -5.0879 N.am     1 UNL1      -0.3132
     19 C            -3.5030   -1.6854   -6.4262 C.3      1 UNL1       0.0156
     20 C            -3.3794   -3.0726   -7.1006 C.3      1 UNL1      -0.0120
     21 C            -4.6685   -3.6899   -7.6451 C.ar     1 UNL1      -0.0432
     22 C            -4.5627   -4.7889   -8.5036 C.ar     1 UNL1      -0.0584
     23 C            -5.7030   -5.4084   -9.0139 C.ar     1 UNL1      -0.0588
     24 C            -6.9664   -4.9374   -8.6673 C.ar     1 UNL1      -0.0264
     25 C            -7.0818   -3.8448   -7.8135 C.ar     1 UNL1       0.1237
     26 F            -8.2995   -3.3863   -7.4757 F        1 UNL1      -0.2055
     27 C            -5.9448   -3.2217   -7.3050 C.ar     1 UNL1      -0.0232
     28 C            -1.0469   -2.0200   -4.5683 C.ar     1 UNL1       0.0002
     29 C            -0.8587   -3.3695   -4.8910 C.ar     1 UNL1      -0.0534
     30 C             0.0161   -3.7158   -5.9160 C.ar     1 UNL1      -0.0433
     31 C             0.6878   -2.7086   -6.6017 C.ar     1 UNL1       0.0276
     32 N             0.5505   -1.4017   -6.2903 N.ar     1 UNL1      -0.2629
     33 C            -0.2882   -1.0804   -5.2789 C.ar     1 UNL1       0.0330
     34 C             0.1072   -1.2348   -0.4874 C.ar     1 UNL1      -0.0400
     35 C             0.8321   -0.3057    0.2568 C.ar     1 UNL1      -0.0563
     36 C             1.1090    3.3855    1.1784 C.3      1 UNL1      -0.0428
     37 C             1.4836    2.3305    2.1734 C.3      1 UNL1      -0.0428
     38 H             2.9466    1.3714   -0.8797 H        1 UNL1       0.0238
     39 H             3.6471    1.3668    0.7414 H        1 UNL1       0.0238
     40 H             3.4131    2.8928   -0.1225 H        1 UNL1       0.0238
     41 H            -0.2752    2.5268   -1.2234 H        1 UNL1       0.0621
     42 H            -1.7240    0.9511   -2.3360 H        1 UNL1       0.0636
     43 H            -2.3079   -1.5696    0.9496 H        1 UNL1       0.0657
     44 H            -1.5825   -3.1427    3.0473 H        1 UNL1       0.0649
     45 H            -1.0305   -5.5921    1.9041 H        1 UNL1       0.1029
     46 H            -2.0618   -0.4313   -3.6733 H        1 UNL1       0.0652
     47 H            -5.1159   -1.8282   -5.1058 H        1 UNL1       0.1488
     48 H            -4.1321   -1.0507   -7.0557 H        1 UNL1       0.0465
     49 H            -2.5320   -1.2005   -6.3845 H        1 UNL1       0.0465
     50 H            -2.6700   -2.9778   -7.9267 H        1 UNL1       0.0328
     51 H            -2.9421   -3.7823   -6.3984 H        1 UNL1       0.0328
     52 H            -3.5822   -5.1729   -8.7772 H        1 UNL1       0.0620
     53 H            -5.6066   -6.2623   -9.6799 H        1 UNL1       0.0619
     54 H            -7.8579   -5.4202   -9.0600 H        1 UNL1       0.0646
     55 H            -6.0779   -2.3731   -6.6430 H        1 UNL1       0.0649
     56 H            -1.4134   -4.1624   -4.4106 H        1 UNL1       0.0622
     57 H             0.1497   -4.7583   -6.1944 H        1 UNL1       0.0633
     58 H             1.3524   -2.9382   -7.4323 H        1 UNL1       0.0829
     59 H            -0.3919   -0.0137   -5.0896 H        1 UNL1       0.0833
     60 H             0.3123   -2.2857   -0.3096 H        1 UNL1       0.0636
     61 H             1.5343   -0.6519    1.0120 H        1 UNL1       0.0621
     62 H             1.7736    4.2394    1.0763 H        1 UNL1       0.0274
     63 H             0.0539    3.6243    1.0816 H        1 UNL1       0.0274
     64 H             0.6787    1.8647    2.7345 H        1 UNL1       0.0274
     65 H             2.3999    2.4794    2.7388 H        1 UNL1       0.0274
@<TRIPOS>BOND
     1     1     2    1
     2     2     3    1
     3     3     4   ar
     4     4     5   ar
     5     5     6   ar
     6     6     7    1
     7     7     8   am
     8     8     9    2
     9     8    10    1
    10    10    11   ar
    11    11    12   ar
    12    12    13   ar
    13    13    14   ar
    14    16    17    2
    15    16    18   am
    16    18    19    1
    17    19    20    1
    18    20    21    1
    19    21    22   ar
    20    22    23   ar
    21    23    24   ar
    22    24    25   ar
    23    25    26    1
    24    25    27   ar
    25    15    28    1
    26    28    29   ar
    27    29    30   ar
    28    30    31   ar
    29    31    32   ar
    30    32    33   ar
    31     6    34   ar
    32    34    35   ar
    33     2    36    1
    34    36    37    1
    35    37     2    1
    36    35     3   ar
    37    14    10   ar
    38    27    21   ar
    39    33    28   ar
    40     1    38    1
    41     1    39    1
    42     1    40    1
    43     4    41    1
    44     5    42    1
    45    11    43    1
    46    12    44    1
    47    13    45    1
    48    15    46    1
    49    18    47    1
    50    19    48    1
    51    19    49    1
    52    20    50    1
    53    20    51    1
    54    22    52    1
    55    23    53    1
    56    24    54    1
    57    27    55    1
    58    29    56    1
    59    30    57    1
    60    31    58    1
    61    33    59    1
    62    34    60    1
    63    35    61    1
    64    36    62    1
    65    36    63    1
    66    37    64    1
    67    37    65    1
    68    15    16    1
    69    15     7    1
@<TRIPOS>SUBSTRUCTURE
     1 UNL1        1 
