@<TRIPOS>MOLECULE
*****
   67    70     1     0     0
SMALL
GASTEIGER


@<TRIPOS>ATOM
      1 C             1.1167    2.2802   -1.7861 C.3      1 UNL1      -0.0560
      2 C             1.7857    0.9275   -1.4371 C.3      1 UNL1      -0.0127
      3 C             2.8813    0.6534   -2.5010 C.3      1 UNL1      -0.0560
      4 C             2.5113    1.0630   -0.0714 C.3      1 UNL1      -0.0560
      5 C             0.7164   -0.1822   -1.3652 C.ar     1 UNL1      -0.0419
      6 C             0.5839   -1.1806   -2.3377 C.ar     1 UNL1      -0.0563
      7 C            -0.4314   -2.1325   -2.2602 C.ar     1 UNL1      -0.0400
      8 C            -1.3183   -2.1754   -1.1742 C.ar     1 UNL1       0.0379
      9 N            -2.3866   -3.1697   -1.0776 N.am     1 UNL1      -0.2488
     10 C            -3.4541   -3.0604   -0.2053 C.2      1 UNL1       0.2870
     11 O            -3.9146   -4.0443    0.3388 O.2      1 UNL1      -0.2662
     12 C            -4.0094   -1.7220    0.1255 C.ar     1 UNL1       0.1896
     13 C            -3.8848   -0.5484   -0.5792 C.ar     1 UNL1      -0.0113
     14 C            -4.3738    0.4681    0.2837 C.ar     1 UNL1      -0.0231
     15 C            -4.7811   -0.1861    1.4121 C.ar     1 UNL1       0.0928
     16 O            -4.6820   -1.5539    1.3217 O.2      1 UNL1      -0.4583
     17 C            -2.1219   -4.5388   -1.6438 C.3      1 UNL1       0.1338
     18 C            -2.1617   -4.6666   -3.1809 C.2      1 UNL1       0.2385
     19 O            -1.3051   -5.2466   -3.8144 O.2      1 UNL1      -0.2734
     20 N            -3.2313   -4.2393   -3.8957 N.am     1 UNL1      -0.3132
     21 C            -4.4447   -3.5447   -3.4502 C.3      1 UNL1       0.0156
     22 C            -4.3951   -2.0402   -3.7812 C.3      1 UNL1      -0.0120
     23 C            -4.3899   -1.7939   -5.2818 C.ar     1 UNL1      -0.0432
     24 C            -3.1793   -1.7136   -5.9751 C.ar     1 UNL1      -0.0584
     25 C            -3.1704   -1.5467   -7.3589 C.ar     1 UNL1      -0.0588
     26 C            -4.3720   -1.4516   -8.0579 C.ar     1 UNL1      -0.0264
     27 C            -5.5800   -1.5148   -7.3669 C.ar     1 UNL1       0.1237
     28 F            -6.7403   -1.4226   -8.0393 F        1 UNL1      -0.2055
     29 C            -5.5928   -1.6850   -5.9838 C.ar     1 UNL1      -0.0232
     30 C            -0.9236   -5.2172   -0.9494 C.ar     1 UNL1       0.0002
     31 C            -1.1129   -5.7984    0.3083 C.ar     1 UNL1      -0.0534
     32 C            -0.0470   -6.4255    0.9483 C.ar     1 UNL1      -0.0433
     33 C             1.1914   -6.4666    0.3142 C.ar     1 UNL1       0.0276
     34 N             1.4094   -5.8974   -0.8902 N.ar     1 UNL1      -0.2629
     35 C             0.3690   -5.2786   -1.4946 C.ar     1 UNL1       0.0330
     36 C            -1.0921   -1.2466   -0.1473 C.ar     1 UNL1      -0.0400
     37 C            -0.1608   -0.2250   -0.2804 C.ar     1 UNL1      -0.0563
     38 H             1.8573    3.0836   -1.8234 H        1 UNL1       0.0238
     39 H             0.3638    2.5520   -1.0428 H        1 UNL1       0.0238
     40 H             0.6255    2.2285   -2.7610 H        1 UNL1       0.0238
     41 H             3.6408    1.4394   -2.4890 H        1 UNL1       0.0238
     42 H             3.3818   -0.2984   -2.3060 H        1 UNL1       0.0238
     43 H             2.4592    0.6259   -3.5082 H        1 UNL1       0.0238
     44 H             1.8390    1.4145    0.7134 H        1 UNL1       0.0238
     45 H             2.9198    0.0983    0.2399 H        1 UNL1       0.0238
     46 H             3.3341    1.7787   -0.1307 H        1 UNL1       0.0238
     47 H             1.2603   -1.2341   -3.1850 H        1 UNL1       0.0621
     48 H            -0.4888   -2.8503   -3.0664 H        1 UNL1       0.0636
     49 H            -3.4102   -0.3831   -1.5377 H        1 UNL1       0.0657
     50 H            -4.3491    1.5378    0.1063 H        1 UNL1       0.0649
     51 H            -5.1473    0.1731    2.3672 H        1 UNL1       0.1029
     52 H            -2.9778   -5.1722   -1.4022 H        1 UNL1       0.0652
     53 H            -3.1746   -4.3813   -4.8932 H        1 UNL1       0.1488
     54 H            -5.2954   -3.9884   -3.9743 H        1 UNL1       0.0465
     55 H            -4.6084   -3.6983   -2.3850 H        1 UNL1       0.0465
     56 H            -5.2553   -1.5413   -3.3275 H        1 UNL1       0.0328
     57 H            -3.4977   -1.6021   -3.3435 H        1 UNL1       0.0328
     58 H            -2.2365   -1.7991   -5.4391 H        1 UNL1       0.0620
     59 H            -2.2251   -1.4999   -7.8941 H        1 UNL1       0.0619
     60 H            -4.3666   -1.3314   -9.1385 H        1 UNL1       0.0646
     61 H            -6.5427   -1.7443   -5.4575 H        1 UNL1       0.0649
     62 H            -2.0833   -5.7671    0.7948 H        1 UNL1       0.0622
     63 H            -0.1803   -6.8798    1.9269 H        1 UNL1       0.0633
     64 H             2.0465   -6.9602    0.7725 H        1 UNL1       0.0829
     65 H             0.6129   -4.8356   -2.4560 H        1 UNL1       0.0833
     66 H            -1.6724   -1.2641    0.7694 H        1 UNL1       0.0636
     67 H            -0.1230    0.5359    0.4934 H        1 UNL1       0.0621
@<TRIPOS>BOND
     1     1     2    1
     2     2     3    1
     3     2     4    1
     4     2     5    1
     5     5     6   ar
     6     6     7   ar
     7     7     8   ar
     8     8     9    1
     9     9    10   am
    10    10    11    2
    11    10    12    1
    12    12    13   ar
    13    13    14   ar
    14    14    15   ar
    15    15    16   ar
    16     9    17    1
    17    17    18    1
    18    18    19    2
    19    18    20   am
    20    20    21    1
    21    21    22    1
    22    22    23    1
    23    23    24   ar
    24    24    25   ar
    25    25    26   ar
    26    26    27   ar
    27    27    28    1
    28    27    29   ar
    29    17    30    1
    30    30    31   ar
    31    31    32   ar
    32    32    33   ar
    33    33    34   ar
    34    34    35   ar
    35     8    36   ar
    36    36    37   ar
    37    37     5   ar
    38    16    12   ar
    39    29    23   ar
    40    35    30   ar
    41     1    38    1
    42     1    39    1
    43     1    40    1
    44     3    41    1
    45     3    42    1
    46     3    43    1
    47     4    44    1
    48     4    45    1
    49     4    46    1
    50     6    47    1
    51     7    48    1
    52    13    49    1
    53    14    50    1
    54    15    51    1
    55    17    52    1
    56    20    53    1
    57    21    54    1
    58    21    55    1
    59    22    56    1
    60    22    57    1
    61    24    58    1
    62    25    59    1
    63    26    60    1
    64    29    61    1
    65    31    62    1
    66    32    63    1
    67    33    64    1
    68    35    65    1
    69    36    66    1
    70    37    67    1
@<TRIPOS>SUBSTRUCTURE
     1 UNL1        1 
