@<TRIPOS>MOLECULE
*****
   54    57     1     0     0
SMALL
GASTEIGER


@<TRIPOS>ATOM
      1 O            -4.1867    0.9452   -2.7956 O.2      1 UNL1      -0.2734
      2 C            -3.6036   -0.0644   -2.4596 C.2      1 UNL1       0.2385
      3 N            -3.3239   -0.9539   -3.4453 N.am     1 UNL1      -0.3132
      4 C            -2.2771   -1.9860   -3.4656 C.3      1 UNL1       0.0156
      5 C            -2.5334   -3.1035   -4.4870 C.3      1 UNL1      -0.0120
      6 C            -2.2538   -2.7871   -5.9513 C.ar     1 UNL1      -0.0445
      7 C            -2.2403   -1.4874   -6.4735 C.ar     1 UNL1      -0.0584
      8 C            -2.0241   -1.2794   -7.8348 C.ar     1 UNL1      -0.0601
      9 C            -1.8147   -2.3627   -8.6849 C.ar     1 UNL1      -0.0434
     10 C            -1.8140   -3.6556   -8.1689 C.ar     1 UNL1       0.0412
     11 CL           -1.5527   -5.0086   -9.2140 Cl       1 UNL1      -0.0835
     12 C            -2.0328   -3.8652   -6.8104 C.ar     1 UNL1      -0.0402
     13 C            -3.5851   -0.4396   -0.9686 C.3      1 UNL1       0.1339
     14 C            -2.3386   -1.1720   -0.4508 C.ar     1 UNL1       0.0002
     15 C            -1.0729   -0.8509   -0.9503 C.ar     1 UNL1      -0.0534
     16 C            -0.0028   -1.6979   -0.6744 C.ar     1 UNL1      -0.0433
     17 C            -0.2094   -2.7976    0.1553 C.ar     1 UNL1       0.0276
     18 N            -1.3879   -3.0334    0.7704 N.ar     1 UNL1      -0.2629
     19 C            -2.4186   -2.2032    0.4959 C.ar     1 UNL1       0.0330
     20 N            -4.9024   -1.0220   -0.5492 N.am     1 UNL1      -0.2474
     21 C            -5.5122   -0.6396    0.6212 C.2      1 UNL1       0.2871
     22 O            -6.1205   -1.4666    1.2699 O.2      1 UNL1      -0.2662
     23 C            -5.3523    0.7556    1.1173 C.ar     1 UNL1       0.1896
     24 C            -5.1416    1.8980    0.3793 C.ar     1 UNL1      -0.0113
     25 C            -4.9949    2.9498    1.3208 C.ar     1 UNL1      -0.0231
     26 C            -5.1890    2.3634    2.5391 C.ar     1 UNL1       0.0928
     27 O            -5.4913    1.0227    2.4668 O.2      1 UNL1      -0.4583
     28 C            -5.4065   -2.2003   -1.2409 C.ar     1 UNL1       0.0559
     29 C            -4.6286   -3.3363   -1.5074 C.ar     1 UNL1      -0.0373
     30 C            -5.2046   -4.4539   -2.0993 C.ar     1 UNL1      -0.0418
     31 C            -6.5589   -4.4287   -2.4092 C.ar     1 UNL1       0.0277
     32 N            -7.3376   -3.3522   -2.1641 N.ar     1 UNL1      -0.2614
     33 C            -6.7612   -2.2676   -1.5925 C.ar     1 UNL1       0.0490
     34 H            -3.6016   -0.6542   -4.3676 H        1 UNL1       0.1488
     35 H            -1.3138   -1.5118   -3.6765 H        1 UNL1       0.0465
     36 H            -2.2103   -2.4764   -2.5018 H        1 UNL1       0.0465
     37 H            -1.8965   -3.9431   -4.1967 H        1 UNL1       0.0328
     38 H            -3.5637   -3.4501   -4.3842 H        1 UNL1       0.0328
     39 H            -2.4018   -0.6221   -5.8385 H        1 UNL1       0.0620
     40 H            -2.0250   -0.2687   -8.2354 H        1 UNL1       0.0618
     41 H            -1.6539   -2.1982   -9.7473 H        1 UNL1       0.0632
     42 H            -2.0391   -4.8801   -6.4185 H        1 UNL1       0.0635
     43 H            -3.4570    0.5305   -0.5049 H        1 UNL1       0.0652
     44 H            -0.9399   -0.0158   -1.6338 H        1 UNL1       0.0622
     45 H             0.9664   -1.5305   -1.1367 H        1 UNL1       0.0633
     46 H             0.5812   -3.5209    0.3459 H        1 UNL1       0.0829
     47 H            -3.3600   -2.4726    0.9727 H        1 UNL1       0.0833
     48 H            -5.0683    2.0037   -0.6962 H        1 UNL1       0.0657
     49 H            -4.7627    3.9883    1.1074 H        1 UNL1       0.0649
     50 H            -5.1560    2.7609    3.5468 H        1 UNL1       0.1029
     51 H            -3.5838   -3.3971   -1.2573 H        1 UNL1       0.0637
     52 H            -4.6041   -5.3377   -2.3032 H        1 UNL1       0.0633
     53 H            -7.0496   -5.2919   -2.8555 H        1 UNL1       0.0829
     54 H            -7.4380   -1.4406   -1.3887 H        1 UNL1       0.0848
@<TRIPOS>BOND
     1     1     2    2
     2     2     3   am
     3     3     4    1
     4     4     5    1
     5     5     6    1
     6     6     7   ar
     7     7     8   ar
     8     8     9   ar
     9     9    10   ar
    10    10    11    1
    11    10    12   ar
    12    14    15   ar
    13    15    16   ar
    14    16    17   ar
    15    17    18   ar
    16    18    19   ar
    17    13    20    1
    18    20    21   am
    19    21    22    2
    20    21    23    1
    21    23    24   ar
    22    24    25   ar
    23    25    26   ar
    24    26    27   ar
    25    20    28    1
    26    28    29   ar
    27    29    30   ar
    28    30    31   ar
    29    31    32   ar
    30    32    33   ar
    31    12     6   ar
    32    19    14   ar
    33    27    23   ar
    34    33    28   ar
    35     3    34    1
    36     4    35    1
    37     4    36    1
    38     5    37    1
    39     5    38    1
    40     7    39    1
    41     8    40    1
    42     9    41    1
    43    12    42    1
    44    13    43    1
    45    15    44    1
    46    16    45    1
    47    17    46    1
    48    19    47    1
    49    24    48    1
    50    25    49    1
    51    26    50    1
    52    29    51    1
    53    30    52    1
    54    31    53    1
    55    33    54    1
    56    13    14    1
    57    13     2    1
@<TRIPOS>SUBSTRUCTURE
     1 UNL1        1 
