@<TRIPOS>MOLECULE
*****
   64    67     1     0     0
SMALL
GASTEIGER


@<TRIPOS>ATOM
      1 C             1.5241    2.7786    0.2196 C.3      1 UNL1      -0.0587
      2 C             1.5109    1.5841   -0.7611 C.3      1 UNL1      -0.0215
      3 C             2.6811    0.6347   -0.4149 C.3      1 UNL1      -0.0587
      4 C             0.1784    0.8250   -0.8228 C.ar     1 UNL1      -0.0447
      5 C            -0.9232    1.1482   -0.0183 C.ar     1 UNL1      -0.0566
      6 C            -2.0988    0.4008   -0.0827 C.ar     1 UNL1      -0.0400
      7 C            -2.2192   -0.6531   -0.9900 C.ar     1 UNL1       0.0379
      8 N            -3.4739   -1.3527   -1.1218 N.am     1 UNL1      -0.2488
      9 C            -3.6199   -2.7147   -0.9257 C.2      1 UNL1       0.2870
     10 O            -4.7124   -3.2446   -1.0065 O.2      1 UNL1      -0.2662
     11 C            -2.4098   -3.5733   -0.9607 C.ar     1 UNL1       0.1896
     12 C            -1.2117   -3.3855   -0.3120 C.ar     1 UNL1      -0.0113
     13 C            -0.3214   -4.3382   -0.8787 C.ar     1 UNL1      -0.0231
     14 C            -1.0730   -5.0419   -1.7775 C.ar     1 UNL1       0.0928
     15 O            -2.4019   -4.6949   -1.7695 O.2      1 UNL1      -0.4583
     16 C            -4.6889   -0.5386   -1.5230 C.3      1 UNL1       0.1338
     17 C            -5.5952   -1.1921   -2.5727 C.2      1 UNL1       0.2385
     18 O            -6.7696   -1.3937   -2.3397 O.2      1 UNL1      -0.2734
     19 N            -5.1440   -1.3876   -3.8341 N.am     1 UNL1      -0.3132
     20 C            -3.7562   -1.3173   -4.3084 C.3      1 UNL1       0.0156
     21 C            -3.1518   -2.7197   -4.4905 C.3      1 UNL1      -0.0120
     22 C            -3.5009   -3.4248   -5.7914 C.ar     1 UNL1      -0.0432
     23 C            -2.7644   -4.5594   -6.1369 C.ar     1 UNL1      -0.0584
     24 C            -3.0313   -5.2416   -7.3213 C.ar     1 UNL1      -0.0588
     25 C            -4.0413   -4.7946   -8.1701 C.ar     1 UNL1      -0.0264
     26 C            -4.7836   -3.6682   -7.8269 C.ar     1 UNL1       0.1237
     27 F            -5.7583   -3.2323   -8.6432 F        1 UNL1      -0.2055
     28 C            -4.5210   -2.9853   -6.6438 C.ar     1 UNL1      -0.0232
     29 C            -4.6003    0.9459   -1.9572 C.ar     1 UNL1       0.0002
     30 C            -5.7813    1.6957   -1.8991 C.ar     1 UNL1      -0.0534
     31 C            -5.8122    2.9922   -2.4053 C.ar     1 UNL1      -0.0433
     32 C            -4.6492    3.5333   -2.9437 C.ar     1 UNL1       0.0276
     33 N            -3.4981    2.8357   -3.0264 N.ar     1 UNL1      -0.2629
     34 C            -3.4921    1.5676   -2.5592 C.ar     1 UNL1       0.0330
     35 C            -1.1404   -0.9372   -1.8333 C.ar     1 UNL1      -0.0400
     36 C             0.0507   -0.2281   -1.7300 C.ar     1 UNL1      -0.0566
     37 H             1.3087    2.4489    1.2390 H        1 UNL1       0.0235
     38 H             0.7827    3.5254   -0.0739 H        1 UNL1       0.0235
     39 H             2.5025    3.2645    0.2225 H        1 UNL1       0.0235
     40 H             1.7041    1.9907   -1.7575 H        1 UNL1       0.0343
     41 H             2.4854    0.1051    0.5202 H        1 UNL1       0.0235
     42 H             2.8321   -0.1052   -1.2039 H        1 UNL1       0.0235
     43 H             3.6147    1.1920   -0.3071 H        1 UNL1       0.0235
     44 H            -0.8938    1.9913    0.6649 H        1 UNL1       0.0621
     45 H            -2.9421    0.6809    0.5445 H        1 UNL1       0.0636
     46 H            -0.9526   -2.6186    0.4090 H        1 UNL1       0.0657
     47 H             0.7416   -4.4323   -0.6843 H        1 UNL1       0.0649
     48 H            -0.8166   -5.8135   -2.4950 H        1 UNL1       0.1029
     49 H            -5.3037   -0.5463   -0.6174 H        1 UNL1       0.0652
     50 H            -5.8085   -1.7656   -4.4914 H        1 UNL1       0.1488
     51 H            -3.7169   -0.7587   -5.2466 H        1 UNL1       0.0465
     52 H            -3.1433   -0.7790   -3.5957 H        1 UNL1       0.0465
     53 H            -2.0652   -2.6352   -4.4314 H        1 UNL1       0.0328
     54 H            -3.4655   -3.3527   -3.6604 H        1 UNL1       0.0328
     55 H            -1.9757   -4.9159   -5.4773 H        1 UNL1       0.0620
     56 H            -2.4507   -6.1225   -7.5815 H        1 UNL1       0.0619
     57 H            -4.2508   -5.3234   -9.0956 H        1 UNL1       0.0646
     58 H            -5.1205   -2.1115   -6.4062 H        1 UNL1       0.0649
     59 H            -6.6954    1.2554   -1.5069 H        1 UNL1       0.0622
     60 H            -6.7346    3.5672   -2.3970 H        1 UNL1       0.0633
     61 H            -4.6272    4.5429   -3.3491 H        1 UNL1       0.0829
     62 H            -2.5510    1.0593   -2.7229 H        1 UNL1       0.0833
     63 H            -1.2066   -1.7392   -2.5608 H        1 UNL1       0.0636
     64 H             0.8817   -0.5025   -2.3748 H        1 UNL1       0.0621
@<TRIPOS>BOND
     1     1     2    1
     2     2     3    1
     3     2     4    1
     4     4     5   ar
     5     5     6   ar
     6     6     7   ar
     7     7     8    1
     8     8     9   am
     9     9    10    2
    10     9    11    1
    11    11    12   ar
    12    12    13   ar
    13    13    14   ar
    14    14    15   ar
    15    17    18    2
    16    17    19   am
    17    19    20    1
    18    20    21    1
    19    21    22    1
    20    22    23   ar
    21    23    24   ar
    22    24    25   ar
    23    25    26   ar
    24    26    27    1
    25    26    28   ar
    26    16    29    1
    27    29    30   ar
    28    30    31   ar
    29    31    32   ar
    30    32    33   ar
    31    33    34   ar
    32     7    35   ar
    33    35    36   ar
    34    36     4   ar
    35    15    11   ar
    36    28    22   ar
    37    34    29   ar
    38     1    37    1
    39     1    38    1
    40     1    39    1
    41     2    40    1
    42     3    41    1
    43     3    42    1
    44     3    43    1
    45     5    44    1
    46     6    45    1
    47    12    46    1
    48    13    47    1
    49    14    48    1
    50    16    49    1
    51    19    50    1
    52    20    51    1
    53    20    52    1
    54    21    53    1
    55    21    54    1
    56    23    55    1
    57    24    56    1
    58    25    57    1
    59    28    58    1
    60    30    59    1
    61    31    60    1
    62    32    61    1
    63    34    62    1
    64    35    63    1
    65    36    64    1
    66    16    17    1
    67    16     8    1
@<TRIPOS>SUBSTRUCTURE
     1 UNL1        1 
