# Molecule written by the XED library from Cresset
@<TRIPOS>MOLECULE
CatS_29
    96    100      1
SMALL
USER_CHARGES
@<TRIPOS>ATOM
      1  C1          4.3089   15.6470   -3.5180 C.3       1 MOL1       -0.0957
      2  C2          3.4302   16.9049   -3.5880 C.3       1 MOL1       -0.0277
      3  O1          2.2311   16.6400   -4.3390 O.3       1 MOL1       -0.1599
      4  C3          1.3871   17.6880   -4.5420 C.2       1 MOL1        0.4057
      5  O2          1.6510   18.7711   -4.0260 O.2       1 MOL1       -0.4183
      6  N1          0.2860   17.5010   -5.3040 N.am      1 MOL1       -0.3854
      7  C4         -0.1251   16.1701   -5.7829 C.3       1 MOL1        0.0954
      8  C5         -1.1911   15.5860   -4.8380 C.3       1 MOL1       -0.0600
      9  C6         -1.6669   14.2211   -5.3740 C.3       1 MOL1       -0.0596
     10  N2         -2.2339   14.3440   -6.7310 N.4       1 MOL1       -0.2306
     11  C7         -1.2229   14.8909   -7.6591 C.3       1 MOL1       -0.0596
     12  C8         -0.7219   16.2749   -7.1990 C.3       1 MOL1       -0.0600
     13  C9         -2.7050   13.0260   -7.1969 C.3       1 MOL1       -0.0600
     14  C10        -3.4130   13.0570   -8.5709 C.3       1 MOL1       -0.0608
     15  C11        -3.3400   11.6550   -9.2000 C.3       1 MOL1        0.0794
     16  N3         -4.3390   10.6961   -8.7089 N.pl3     1 MOL1       -0.0691
     17  C12        -5.5311   10.3250   -9.2410 C.ar      1 MOL1        0.0572
     18  C13        -6.2050    9.4821   -8.4580 C.ar      1 MOL1       -0.0684
     19  C14        -5.3400    9.2810   -7.3581 C.ar      1 MOL1        0.0392
     20  N4         -4.2649   10.0230   -7.5360 N.2       1 MOL1       -0.2943
     21  C15        -5.5280    8.4130   -6.2061 C.ar      1 MOL1       -0.0066
     22  C16        -4.4679    7.7389   -5.6280 C.ar      1 MOL1       -0.0846
     23  C17        -4.6601    6.9419   -4.5279 C.ar      1 MOL1       -0.0687
     24  C18        -5.9099    6.7700   -3.9698 C.ar      1 MOL1        0.0171
     25  C19        -6.9760    7.4400   -4.5580 C.ar      1 MOL1        0.0480
     26  C20        -6.7840    8.2540   -5.6509 C.ar      1 MOL1       -0.0655
     27  S1         -8.6621    7.2889   -3.9531 S.3       1 MOL1       -0.1783
     28  C21        -9.2130    8.9470   -3.4730 C.3       1 MOL1       -0.0088
     29  C22        -8.0200    9.8150   -3.0209 C.3       1 MOL1       -0.0441
     30  N5         -8.4071   10.8679   -2.0651 N.4       1 MOL1       -0.2286
     31  C23        -9.7689   11.3441   -2.3740 C.3       1 MOL1       -0.0630
     32  C24       -10.2310   12.4111   -1.3620 C.3       1 MOL1       -0.0834
     33  C25        -9.2441   13.5921   -1.3599 C.3       1 MOL1       -0.0872
     34  C26        -7.8199   13.0739   -1.0851 C.3       1 MOL1       -0.0834
     35  C27        -7.4530   11.9950   -2.1231 C.3       1 MOL1       -0.0630
     36  C28        -5.9451    5.8569   -2.7420 C.3       1 MOL1        0.4149
     37  F1         -4.9471    4.8881   -2.7811 F         1 MOL1       -0.1514
     38  F2         -7.1420    5.1660   -2.5930 F         1 MOL1       -0.1514
     39  F3         -5.7381    6.5910   -1.5781 F         1 MOL1       -0.1514
     40  C29        -7.5840    8.9490   -8.8239 C.3       1 MOL1        0.1169
     41  N6         -8.2561    9.7460   -9.8750 N.3       1 MOL1       -0.4606
     42  C30        -7.3181    9.9450  -11.0011 C.3       1 MOL1        0.0844
     43  C31        -6.0939   10.7929  -10.5730 C.3       1 MOL1       -0.0158
     44  S2         -9.7910    9.3099  -10.1700 S.3       1 MOL1        0.4316
     45  O3         -9.8659    7.9421   -9.7661 O.2       1 MOL1       -0.3139
     46  O4        -10.0690    9.5799  -11.5450 O.2       1 MOL1       -0.3139
     47  C32       -10.9189   10.2890   -9.1310 C.3       1 MOL1        0.0421
     48  H1          5.3190   15.8910   -2.9179 H         1 MOL1        0.0452
     49  H2          3.7121   14.7719   -2.9542 H         1 MOL1        0.0452
     50  H3          4.5839   15.2890   -4.6301 H         1 MOL1        0.0452
     51  H4          4.0440   17.7890   -4.1189 H         1 MOL1        0.0640
     52  H5          3.1340   17.2430   -2.4751 H         1 MOL1        0.0640
     53  H6         -0.2091   18.2001   -5.5070 H         1 MOL1        0.2049
     54  H7          0.8139   15.4249   -5.8330 H         1 MOL1        0.0615
     55  H8         -0.7249   15.4541   -3.7391 H         1 MOL1        0.0483
     56  H9         -2.1311   16.3300   -4.7860 H         1 MOL1        0.0483
     57  H10        -2.5059   13.8240   -4.6130 H         1 MOL1        0.0528
     58  H11        -0.7429   13.4541   -5.3880 H         1 MOL1        0.0528
     59  H12        -1.7000   15.0320   -8.7500 H         1 MOL1        0.0528
     60  H13        -0.2800   14.1500   -7.7229 H         1 MOL1        0.0528
     61  H14         0.1170   16.6710   -7.9591 H         1 MOL1        0.0483
     62  H15        -1.6450   17.0420   -7.1910 H         1 MOL1        0.0483
     63  H16        -3.5301   12.6210   -6.4258 H         1 MOL1        0.0528
     64  H17        -1.8130   12.2240   -7.2250 H         1 MOL1        0.0528
     65  H18        -4.5660   13.3630   -8.4240 H         1 MOL1        0.0480
     66  H19        -2.8850   13.8321   -9.3199 H         1 MOL1        0.0480
     67  H20        -3.4750   11.7689  -10.3870 H         1 MOL1        0.0605
     68  H21        -2.2549   11.1929   -8.9840 H         1 MOL1        0.0605
     69  H22        -3.5490    7.8379   -6.0091 H         1 MOL1        0.0910
     70  H23        -3.8721    6.4760   -4.1251 H         1 MOL1        0.0908
     71  H24        -7.5650    8.7319   -6.0519 H         1 MOL1        0.0929
     72  H25        -9.7310    9.4500   -4.4321 H         1 MOL1        0.0553
     73  H26       -10.0249    8.8690   -2.5919 H         1 MOL1        0.0553
     74  H27        -7.5951   10.3440   -4.0119 H         1 MOL1        0.0547
     75  H28        -7.1411    9.1330   -2.5670 H         1 MOL1        0.0547
     76  H29       -10.5490   10.4350   -2.3161 H         1 MOL1        0.0528
     77  H30        -9.7888   11.8009   -3.4841 H         1 MOL1        0.0528
     78  H31       -10.2649   11.9170   -0.2701 H         1 MOL1        0.0467
     79  H32       -11.3259   12.8010   -1.6600 H         1 MOL1        0.0467
     80  H33        -9.5601   14.3840   -0.5171 H         1 MOL1        0.0460
     81  H34        -9.2640   14.1291   -2.4330 H         1 MOL1        0.0460
     82  H35        -7.0419   13.9839   -1.1570 H         1 MOL1        0.0467
     83  H36        -7.7741   12.5989    0.0151 H         1 MOL1        0.0467
     84  H37        -7.4590   12.4810   -3.2210 H         1 MOL1        0.0528
     85  H38        -6.3401   11.6220   -1.8749 H         1 MOL1        0.0528
     86  H39        -7.4861    7.8079   -9.1821 H         1 MOL1        0.0628
     87  H40        -8.2800    8.9950   -7.8460 H         1 MOL1        0.0628
     88  H41        -6.9429    8.8781  -11.4010 H         1 MOL1        0.0601
     89  H42        -7.8699   10.5230  -11.8950 H         1 MOL1        0.0601
     90  H43        -6.4270   11.9410  -10.4690 H         1 MOL1        0.0516
     91  H44        -5.2559   10.6981  -11.4261 H         1 MOL1        0.0516
     92  H45       -11.0141   11.4131   -9.5421 H         1 MOL1        0.0588
     93  H46       -12.0139    9.7990   -9.1410 H         1 MOL1        0.0588
     94  H47       -10.5202   10.3160   -7.9991 H         1 MOL1        0.0588
     95  H          -2.9464   14.9139   -6.7056 H         1 MOL1        0.1913
     96  H          -8.4055   10.5163   -1.2231 H         1 MOL1        0.1920
@<TRIPOS>BOND
     1      1      2 1 
     2      2      3 1 
     3      3      4 1 
     4      4      5 2 
     5      4      6 am
     6      6      7 1 
     7      7      8 1 
     8      7     12 1 
     9      8      9 1 
    10      9     10 1 
    11     10     11 1 
    12     10     13 1 
    13     11     12 1 
    14     13     14 1 
    15     14     15 1 
    16     15     16 1 
    17     16     17 ar
    18     16     20 ar
    19     17     18 ar
    20     17     43 1 
    21     18     19 ar
    22     18     40 1 
    23     19     20 ar
    24     19     21 1 
    25     21     22 ar
    26     21     26 ar
    27     22     23 ar
    28     23     24 ar
    29     24     25 ar
    30     24     36 1 
    31     25     26 ar
    32     25     27 1 
    33     27     28 1 
    34     28     29 1 
    35     29     30 1 
    36     30     31 1 
    37     30     35 1 
    38     31     32 1 
    39     32     33 1 
    40     33     34 1 
    41     34     35 1 
    42     36     37 1 
    43     36     38 1 
    44     36     39 1 
    45     40     41 1 
    46     41     42 1 
    47     41     44 1 
    48     42     43 1 
    49     44     45 2 
    50     44     46 2 
    51     44     47 1 
    52      1     48 1 
    53      1     49 1 
    54      1     50 1 
    55      2     51 1 
    56      2     52 1 
    57      6     53 1 
    58      7     54 1 
    59      8     55 1 
    60      8     56 1 
    61      9     57 1 
    62      9     58 1 
    63     10     95 1 
    64     11     59 1 
    65     11     60 1 
    66     12     61 1 
    67     12     62 1 
    68     13     63 1 
    69     13     64 1 
    70     14     65 1 
    71     14     66 1 
    72     15     67 1 
    73     15     68 1 
    74     22     69 1 
    75     23     70 1 
    76     26     71 1 
    77     28     72 1 
    78     28     73 1 
    79     29     74 1 
    80     29     75 1 
    81     30     96 1 
    82     31     76 1 
    83     31     77 1 
    84     32     78 1 
    85     32     79 1 
    86     33     80 1 
    87     33     81 1 
    88     34     82 1 
    89     34     83 1 
    90     35     84 1 
    91     35     85 1 
    92     40     86 1 
    93     40     87 1 
    94     42     88 1 
    95     42     89 1 
    96     43     90 1 
    97     43     91 1 
    98     47     92 1 
    99     47     93 1 
   100     47     94 1 
@<TRIPOS>SUBSTRUCTURE
     1 MOL1         1 MOLECULE          1 A
