lig_18637-1
     RDKit          3D

 53 54  0  0  0  0  0  0  0  0999 V2000
   24.0680   12.3970   30.2300 C   0  0  0  0  0  0  0  0  0  0  0  0
   23.3160   11.0780   30.4230 C   0  0  0  0  0  0  0  0  0  0  0  0
   22.2070   11.3320   31.2810 O   0  0  0  0  0  0  0  0  0  0  0  0
   21.4080   10.2810   31.6980 C   0  0  0  0  0  0  0  0  0  0  0  0
   21.7480    9.0320   31.2790 N   0  0  0  0  0  0  0  0  0  0  0  0
   20.9740    8.0020   31.6540 C   0  0  0  0  0  0  0  0  0  0  0  0
   19.8660    8.1460   32.4780 C   0  0  0  0  0  0  0  0  0  0  0  0
   19.5200    9.4180   32.8980 C   0  0  0  0  0  0  0  0  0  0  0  0
   18.3830    9.4990   33.6930 N   0  0  0  0  0  0  0  0  0  0  0  0
   20.2910   10.5240   32.5050 C   0  0  0  0  0  0  0  0  0  0  0  0
   19.9670   11.8930   32.8850 C   0  0  0  0  0  0  0  0  0  0  0  0
   19.7170   12.9840   33.1810 N   0  0  0  0  0  0  0  0  0  0  0  0
   21.4330    6.8190   31.1100 N   0  0  0  0  0  0  0  0  0  0  0  0
   20.8530    5.6190   31.0280 C   0  0  0  0  0  0  0  0  0  0  0  0
   19.7270    5.3570   31.4480 O   0  0  0  0  0  0  0  0  0  0  0  0
   21.6390    4.5480   30.2800 C   0  0  0  0  0  0  0  0  0  0  0  0
   23.0290    4.2860   30.8550 C   0  0  0  0  0  0  0  0  0  0  0  0
   24.1070    5.1200   30.5270 C   0  0  0  0  0  0  0  0  0  0  0  0
   23.8490    6.2030   29.7040 O   0  0  0  0  0  0  0  0  0  0  0  0
   24.8540    7.1990   29.5180 C   0  0  0  0  0  0  0  0  0  0  0  0
   25.3720    4.8230   31.0460 C   0  0  0  0  0  0  0  0  0  0  0  0
   25.5640    3.7380   31.9140 C   0  0  0  0  0  0  0  0  0  0  0  0
   24.4770    2.9180   32.2550 C   0  0  0  0  0  0  0  0  0  0  0  0
   23.2160    3.2000   31.7130 C   0  0  0  0  0  0  0  0  0  0  0  0
   24.7080    1.8720   33.1350 O   0  0  0  0  0  0  0  0  0  0  0  0
   23.7950    0.7760   33.1650 C   0  0  0  0  0  0  0  0  0  0  0  0
   26.8110    3.4130   32.4990 N   0  0  0  0  0  0  0  0  0  0  0  0
   28.0300    3.9580   32.3630 C   0  0  0  0  0  0  0  0  0  0  0  0
   28.3090    4.8810   31.6040 O   0  0  0  0  0  0  0  0  0  0  0  0
   29.1270    3.3860   33.2440 C   0  0  0  0  0  0  0  0  0  0  0  0
   24.9130   12.2710   29.5530 H   0  0  0  0  0  0  0  0  0  0  0  0
   23.4120   13.1590   29.8080 H   0  0  0  0  0  0  0  0  0  0  0  0
   24.4480   12.7740   31.1800 H   0  0  0  0  0  0  0  0  0  0  0  0
   22.9680   10.6940   29.4610 H   0  0  0  0  0  0  0  0  0  0  0  0
   23.9860   10.3340   30.8590 H   0  0  0  0  0  0  0  0  0  0  0  0
   19.2720    7.2990   32.7770 H   0  0  0  0  0  0  0  0  0  0  0  0
   17.9980   10.4050   33.9510 H   0  0  0  0  0  0  0  0  0  0  0  0
   17.9020    8.6510   33.9780 H   0  0  0  0  0  0  0  0  0  0  0  0
   22.3410    6.9230   30.6840 H   0  0  0  0  0  0  0  0  0  0  0  0
   21.0720    3.6220   30.2390 H   0  0  0  0  0  0  0  0  0  0  0  0
   21.7300    4.9030   29.2590 H   0  0  0  0  0  0  0  0  0  0  0  0
   25.1770    7.6320   30.4670 H   0  0  0  0  0  0  0  0  0  0  0  0
   25.7220    6.8020   28.9900 H   0  0  0  0  0  0  0  0  0  0  0  0
   24.4470    8.0090   28.9130 H   0  0  0  0  0  0  0  0  0  0  0  0
   26.2050    5.4490   30.7820 H   0  0  0  0  0  0  0  0  0  0  0  0
   22.3700    2.5750   31.9550 H   0  0  0  0  0  0  0  0  0  0  0  0
   24.1830    0.0080   33.8350 H   0  0  0  0  0  0  0  0  0  0  0  0
   22.8120    1.0580   33.5380 H   0  0  0  0  0  0  0  0  0  0  0  0
   23.6830    0.3200   32.1820 H   0  0  0  0  0  0  0  0  0  0  0  0
   26.7330    2.6380   33.1390 H   0  0  0  0  0  0  0  0  0  0  0  0
   28.7670    2.6000   33.9070 H   0  0  0  0  0  0  0  0  0  0  0  0
   29.9210    2.9780   32.6210 H   0  0  0  0  0  0  0  0  0  0  0  0
   29.5480    4.1840   33.8560 H   0  0  0  0  0  0  0  0  0  0  0  0
  1  2  1  0
  1 31  1  0
  1 32  1  0
  1 33  1  0
  2  3  1  0
  2 34  1  0
  2 35  1  0
  3  4  1  0
  4 10  2  0
  4  5  1  0
  5  6  2  0
  6  7  1  0
  6 13  1  0
  7  8  2  0
  7 36  1  0
  8  9  1  0
  8 10  1  0
  9 37  1  0
  9 38  1  0
 10 11  1  0
 11 12  3  0
 13 14  1  0
 13 39  1  0
 14 15  2  0
 14 16  1  0
 16 17  1  0
 16 40  1  0
 16 41  1  0
 17 24  1  0
 17 18  2  0
 18 19  1  0
 18 21  1  0
 19 20  1  0
 20 42  1  0
 20 43  1  0
 20 44  1  0
 21 22  2  0
 21 45  1  0
 22 23  1  0
 22 27  1  0
 23 24  2  0
 23 25  1  0
 24 46  1  0
 25 26  1  0
 26 47  1  0
 26 48  1  0
 26 49  1  0
 27 28  1  0
 27 50  1  0
 28 29  2  0
 28 30  1  0
 30 51  1  0
 30 52  1  0
 30 53  1  0
M  END
$$$$
