# created with PyMOL 1.9.0.0
@<TRIPOS>MOLECULE
CatS_141
92 97 1                 
SMALL
USER_CHARGES
@<TRIPOS>ATOM
1	  C1	-4.486	7.539	-5.713	C.2	1	MOL11	-0.085	
2	  N1	-4.365	10.626	-8.681	N.2	1	MOL11	-0.067	
3	  O1	-4.261	13.669	-8.596	O.3	1	MOL11	-0.441	
4	  S1	-8.519	7.448	-3.640	S.3	1	MOL11	-0.178	
5	  C2	-4.660	6.711	-4.631	C.2	1	MOL11	-0.069	
6	  N2	-4.258	9.869	-7.565	N.2	1	MOL11	-0.294	
7	  O2	-9.165	7.418	-10.357	O.2	1	MOL11	-0.420	
8	  C3	-5.870	6.638	-3.973	C.2	1	MOL11	0.017	
9	  N3	-2.113	14.274	-6.786	N.4	1	MOL11	-0.228	
10	  C4	-6.911	7.427	-4.442	C.2	1	MOL11	0.048	
11	  N4	-8.250	9.445	-9.905	N.pl3	1	MOL11	-0.395	
12	  C5	-6.744	8.248	-5.534	C.2	1	MOL11	-0.065	
13	  N5	-8.474	11.024	-1.985	N.4	1	MOL11	-0.228	
14	  C6	-5.526	8.321	-6.183	C.2	1	MOL11	-0.007	
15	  C7	-5.373	9.215	-7.320	C.2	1	MOL11	0.039	
16	  C8	-6.301	9.535	-8.334	C.2	1	MOL11	-0.069	
17	  C9	-5.632	10.381	-9.123	C.2	1	MOL11	0.057	
18	 C10	-3.282	11.502	-9.168	C.3	1	MOL11	0.098	
19	 C11	-3.035	12.925	-8.622	C.3	1	MOL11	0.019	
20	 C12	-2.458	12.895	-7.194	C.3	1	MOL11	-0.033	
21	 C13	-1.246	14.939	-7.782	C.3	1	MOL11	-0.063	
22	 C14	-0.928	16.379	-7.387	C.3	1	MOL11	-0.083	
23	 C15	-0.305	16.425	-5.998	C.3	1	MOL11	-0.087	
24	 C16	-1.203	15.717	-4.999	C.3	1	MOL11	-0.083	
25	 C17	-1.479	14.295	-5.464	C.3	1	MOL11	-0.063	
26	 C18	-6.265	10.947	-10.386	C.3	1	MOL11	-0.017	
27	 C19	-7.796	10.744	-10.458	C.3	1	MOL11	0.080	
28	 C20	-7.732	9.072	-8.574	C.3	1	MOL11	0.115	
29	 C21	-9.162	8.635	-10.491	C.2	1	MOL11	0.288	
30	 C22	-10.208	9.328	-11.350	C.3	1	MOL11	0.007	
31	 C23	-11.629	8.805	-11.118	C.3	1	MOL11	-0.078	
32	 C24	-12.194	10.185	-10.677	C.3	1	MOL11	-0.089	
33	 C25	-10.717	10.657	-10.791	C.3	1	MOL11	-0.078	
34	 C26	-9.088	9.167	-3.589	C.3	1	MOL11	-0.009	
35	 C27	-7.986	10.077	-3.006	C.3	1	MOL11	-0.044	
36	 C28	-9.734	11.631	-2.414	C.3	1	MOL11	-0.057	
37	 C29	-10.292	12.545	-1.327	C.3	1	MOL11	-0.047	
38	 C30	-9.306	13.638	-0.938	C.3	1	MOL11	0.050	
39	 C31	-7.954	13.017	-0.636	C.3	1	MOL11	-0.047	
40	 C32	-7.494	12.083	-1.747	C.3	1	MOL11	-0.057	
41	 C33	-5.954	5.690	-2.779	C.3	1	MOL11	0.415	
42	  F2	-5.820	6.378	-1.579	 F	1	MOL11	-0.151	
43	  F3	-7.185	5.044	-2.751	 F	1	MOL11	-0.151	
44	  F4	-4.979	4.696	-2.784	 F	1	MOL11	-0.151	
45	 H41	-9.717	14.189	0.045	 F	1	MOL11	-0.217	
46	 H01	-7.360	12.658	-2.663	 H	1	MOL11	0.000	
47	 H02	-3.516	7.581	-6.208	 H	1	MOL11	0.000	
48	 H03	-4.533	13.870	-9.495	 H	1	MOL11	0.000	
49	 H04	-3.826	6.100	-4.286	 H	1	MOL11	0.000	
50	 H05	-2.979	14.790	-6.733	 H	1	MOL11	0.000	
51	 H06	-7.582	8.847	-5.891	 H	1	MOL11	0.000	
52	 H07	-8.619	10.507	-1.130	 H	1	MOL11	0.000	
53	 H08	-3.448	11.616	-10.239	 H	1	MOL11	0.000	
54	 H09	-2.314	13.400	-9.288	 H	1	MOL11	0.000	
55	 H10	-1.564	12.272	-7.173	 H	1	MOL11	0.000	
56	 H11	-1.754	14.941	-8.747	 H	1	MOL11	0.000	
57	 H12	-1.848	16.964	-7.388	 H	1	MOL11	0.000	
58	 H13	-0.176	17.464	-5.694	 H	1	MOL11	0.000	
59	 H14	-2.145	16.258	-4.912	 H	1	MOL11	0.000	
60	 H15	-0.537	13.749	-5.514	 H	1	MOL11	0.000	
61	 H16	-5.811	10.458	-11.248	 H	1	MOL11	0.000	
62	 H17	-8.103	10.801	-11.502	 H	1	MOL11	0.000	
63	 H18	-7.766	7.986	-8.481	 H	1	MOL11	0.000	
64	 H19	-9.699	9.264	-12.312	 H	1	MOL11	0.000	
65	 H20	-11.685	8.049	-10.335	 H	1	MOL11	0.000	
66	 H21	-12.618	10.217	-9.674	 H	1	MOL11	0.000	
67	 H22	-10.586	11.490	-11.482	 H	1	MOL11	0.000	
68	 H23	-9.979	9.234	-2.964	 H	1	MOL11	0.000	
69	 H24	-7.544	10.648	-3.822	 H	1	MOL11	0.000	
70	 H25	-10.457	10.843	-2.626	 H	1	MOL11	0.000	
71	 H26	-10.520	11.946	-0.446	 H	1	MOL11	0.000	
72	 H27	-9.199	14.352	-1.754	 H	1	MOL11	0.000	
73	 H28	-8.025	12.451	0.293	 H	1	MOL11	0.000	
74	 H29	-6.554	11.622	-1.444	 H	1	MOL11	0.000	
75	 H30	-2.400	10.976	-8.804	 H	1	MOL11	0.000	
76	 H31	-3.196	12.482	-6.507	 H	1	MOL11	0.000	
77	 H32	-0.307	14.388	-7.835	 H	1	MOL11	0.000	
78	 H33	-0.220	16.793	-8.105	 H	1	MOL11	0.000	
79	 H34	0.663	15.924	-6.025	 H	1	MOL11	0.000	
80	 H35	-0.705	15.686	-4.030	 H	1	MOL11	0.000	
81	 H36	-2.160	13.830	-4.752	 H	1	MOL11	0.000	
82	 H37	-6.086	12.022	-10.378	 H	1	MOL11	0.000	
83	 H38	-8.250	11.526	-9.850	 H	1	MOL11	0.000	
84	 H39	-8.360	9.566	-7.833	 H	1	MOL11	0.000	
85	 H40	-12.125	8.288	-11.940	 H	1	MOL11	0.000	
86	 H42	-13.022	10.682	-11.182	 H	1	MOL11	0.000	
87	 H43	-10.237	11.052	-9.896	 H	1	MOL11	0.000	
88	 H44	-9.320	9.495	-4.603	 H	1	MOL11	0.000	
89	 H45	-7.263	9.425	-2.515	 H	1	MOL11	0.000	
90	 H46	-9.549	12.225	-3.309	 H	1	MOL11	0.000	
91	 H47	-11.188	13.025	-1.719	 H	1	MOL11	0.000	
92	 H48	-7.225	13.823	-0.551	 H	1	MOL11	0.000	
@<TRIPOS>BOND
1 1 5 ar
2 1 14 ar
3 1 47 1
4 2 6 ar
5 2 18 1
6 3 48 1
7 4 34 1
8 5 8 ar
9 5 49 1
10 8 10 ar
11 8 41 1
12 9 21 1
13 9 25 1
14 9 50 1
15 4 10 1
16 10 12 ar
17 11 28 1
18 11 29 1
19 12 14 ar
20 12 51 1
21 13 36 1
22 13 40 1
23 13 52 1
24 14 15 1
25 6 15 ar
26 15 16 ar
27 16 17 ar
28 16 28 1
29 2 17 ar
30 17 26 1
31 18 19 1
32 18 53 1
33 18 75 1
34 3 19 1
35 19 20 1
36 19 54 1
37 9 20 1
38 20 55 1
39 20 76 1
40 21 22 1
41 21 56 1
42 21 77 1
43 22 23 1
44 22 57 1
45 22 78 1
46 23 24 1
47 23 58 1
48 23 79 1
49 24 25 1
50 24 59 1
51 24 80 1
52 25 60 1
53 25 81 1
54 26 27 1
55 26 61 1
56 26 82 1
57 11 27 1
58 27 62 1
59 27 83 1
60 28 63 1
61 28 84 1
62 7 29 2
63 29 30 1
64 30 31 1
65 30 33 1
66 30 64 1
67 31 32 1
68 31 65 1
69 31 85 1
70 32 33 1
71 32 66 1
72 32 86 1
73 33 67 1
74 33 87 1
75 34 35 1
76 34 68 1
77 34 88 1
78 13 35 1
79 35 69 1
80 35 89 1
81 36 37 1
82 36 70 1
83 36 90 1
84 37 38 1
85 37 71 1
86 37 91 1
87 38 39 1
88 38 45 1
89 38 72 1
90 39 40 1
91 39 73 1
92 39 92 1
93 40 46 1
94 40 74 1
95 41 42 1
96 41 43 1
97 41 44 1
@<TRIPOS>SUBSTRUCTURE
1	MOL11	1	GROUP	1 A	MOL1
