CatS_131
 OpenBabel05281909343D

100105  0  0  1  0  0  0  0  0999 V2000
   -4.4862    7.5392   -5.7132 C   0  0  0  0  0  0  0  0  0  0  0  0
   -4.6601    6.7110   -4.6311 C   0  0  0  0  0  0  0  0  0  0  0  0
   -5.8701    6.6380   -3.9732 C   0  0  0  0  0  0  0  0  0  0  0  0
   -6.9109    7.4268   -4.4418 C   0  0  0  0  0  0  0  0  0  0  0  0
   -6.7442    8.2479   -5.5342 C   0  0  0  0  0  0  0  0  0  0  0  0
   -5.5264    8.3209   -6.1831 C   0  0  0  0  0  0  0  0  0  0  0  0
   -5.3730    9.2152   -7.3200 C   0  0  0  0  0  0  0  0  0  0  0  0
   -6.3012    9.5350   -8.3340 C   0  0  0  0  0  0  0  0  0  0  0  0
   -5.6321   10.3809   -9.1235 C   0  0  0  0  0  0  0  0  0  0  0  0
   -4.3650   10.6259   -8.6810 N   0  0  0  0  0  0  0  0  0  0  0  0
   -4.2578    9.8691   -7.5652 N   0  0  0  0  0  0  0  0  0  0  0  0
   -3.2820   11.5018   -9.1680 C   0  0  0  0  0  0  0  0  0  0  0  0
   -3.0351   12.9250   -8.6221 C   0  0  2  0  0  0  0  0  0  0  0  0
   -2.4582   12.8949   -7.1940 C   0  0  0  0  0  0  0  0  0  0  0  0
   -2.1131   14.2739   -6.7861 N   0  3  0  0  0  0  0  0  0  0  0  0
   -1.2461   14.9391   -7.7821 C   0  0  0  0  0  0  0  0  0  0  0  0
   -0.9278   16.3791   -7.3871 C   0  0  0  0  0  0  0  0  0  0  0  0
   -0.3051   16.4251   -5.9979 C   0  0  0  0  0  0  0  0  0  0  0  0
   -1.2031   15.7168   -4.9989 C   0  0  0  0  0  0  0  0  0  0  0  0
   -1.4792   14.2950   -5.4641 C   0  0  0  0  0  0  0  0  0  0  0  0
   -4.2610   13.6691   -8.5962 O   0  0  0  0  0  0  0  0  0  0  0  0
   -6.2651   10.9470  -10.3860 C   0  0  0  0  0  0  0  0  0  0  0  0
   -7.7959   10.7440  -10.4583 C   0  0  0  0  0  0  0  0  0  0  0  0
   -8.2500    9.4452   -9.9048 N   0  0  0  0  0  0  0  0  0  0  0  0
   -7.7319    9.0716   -8.5741 C   0  0  0  0  0  0  0  0  0  0  0  0
   -9.1622    8.6351  -10.4911 C   0  0  0  0  0  0  0  0  0  0  0  0
   -9.1647    7.4180  -10.3569 O   0  0  0  0  0  0  0  0  0  0  0  0
   -8.5191    7.4480   -3.6402 S   0  0  0  0  0  0  0  0  0  0  0  0
   -9.0884    9.1671   -3.5890 C   0  0  0  0  0  0  0  0  0  0  0  0
   -7.9859   10.0770   -3.0060 C   0  0  0  0  0  0  0  0  0  0  0  0
   -8.4741   11.0242   -1.9848 N   0  3  2  0  0  0  0  0  0  0  0  0
   -9.7343   11.6311   -2.4138 C   0  0  0  0  0  0  0  0  0  0  0  0
  -10.2920   12.5449   -1.3273 C   0  0  0  0  0  0  0  0  0  0  0  0
   -9.3058   13.6378   -0.9381 C   0  0  2  0  0  0  0  0  0  0  0  0
   -7.9540   13.0169   -0.6358 C   0  0  0  0  0  0  0  0  0  0  0  0
   -7.4938   12.0830   -1.7473 C   0  0  0  0  0  0  0  0  0  0  0  0
   -5.9540    5.6900   -2.7789 C   0  0  0  0  0  0  0  0  0  0  0  0
   -5.8199    6.3780   -1.5789 F   0  0  0  0  0  0  0  0  0  0  0  0
   -7.1848    5.0439   -2.7509 F   0  0  0  0  0  0  0  0  0  0  0  0
   -4.9793    4.6959   -2.7842 F   0  0  0  0  0  0  0  0  0  0  0  0
   -9.7173   14.1890    0.0451 F   0  0  0  0  0  0  0  0  0  0  0  0
   -9.8176    9.0191  -11.1325 N   0  0  0  0  0  0  0  0  0  0  0  0
  -10.3386    8.4887  -11.6079 C   0  0  0  0  0  0  0  0  0  0  0  0
  -10.0997    7.1704  -11.2014 C   0  0  0  0  0  0  0  0  0  0  0  0
  -10.9262    6.3288  -11.9555 C   0  0  0  0  0  0  0  0  0  0  0  0
  -10.6023    6.5014  -13.3064 C   0  0  0  0  0  0  0  0  0  0  0  0
  -10.8227    7.8441  -13.6361 C   0  0  0  0  0  0  0  0  0  0  0  0
   -9.9999    8.6305  -12.8207 C   0  0  0  0  0  0  0  0  0  0  0  0
   -9.1951   14.5601   -1.9739 H   0  0  0  0  0  0  0  0  0  0  0  0
   -2.2380   13.4761   -9.3291 H   0  0  0  0  0  0  0  0  0  0  0  0
   -3.5971    7.5730   -6.1659 H   0  0  0  0  0  0  0  0  0  0  0  0
   -3.8920    6.1560   -4.3162 H   0  0  0  0  0  0  0  0  0  0  0  0
   -7.5100    8.8059   -5.8540 H   0  0  0  0  0  0  0  0  0  0  0  0
   -2.2557   10.8949   -9.0270 H   0  0  0  0  0  0  0  0  0  0  0  0
   -3.4737   11.6019  -10.3479 H   0  0  0  0  0  0  0  0  0  0  0  0
   -3.2400   12.3630   -6.4550 H   0  0  0  0  0  0  0  0  0  0  0  0
   -1.4850   12.1940   -7.2511 H   0  0  0  0  0  0  0  0  0  0  0  0
   -0.2439   14.3011   -7.9562 H   0  0  0  0  0  0  0  0  0  0  0  0
   -1.8489   14.9609   -8.8191 H   0  0  0  0  0  0  0  0  0  0  0  0
   -0.1580   16.8700   -8.1652 H   0  0  0  0  0  0  0  0  0  0  0  0
   -1.9399   17.0230   -7.3742 H   0  0  0  0  0  0  0  0  0  0  0  0
   -0.1760   17.5701   -5.6631 H   0  0  0  0  0  0  0  0  0  0  0  0
    0.7699   15.8920   -6.0171 H   0  0  0  0  0  0  0  0  0  0  0  0
   -2.2421   16.3121   -4.9178 H   0  0  0  0  0  0  0  0  0  0  0  0
   -0.6710   15.7250   -3.9251 H   0  0  0  0  0  0  0  0  0  0  0  0
   -0.4577   13.6638   -5.4442 H   0  0  0  0  0  0  0  0  0  0  0  0
   -2.2312   13.8079   -4.6658 H   0  0  0  0  0  0  0  0  0  0  0  0
   -4.1120   14.6072   -8.2651 H   0  0  0  0  0  0  0  0  0  0  0  0
   -6.0528   12.1222  -10.4688 H   0  0  0  0  0  0  0  0  0  0  0  0
   -5.7721   10.3860  -11.3250 H   0  0  0  0  0  0  0  0  0  0  0  0
   -8.1117   10.9422  -11.5963 H   0  0  0  0  0  0  0  0  0  0  0  0
   -8.3140   11.5920   -9.7850 H   0  0  0  0  0  0  0  0  0  0  0  0
   -8.4471    9.5699   -7.7480 H   0  0  0  0  0  0  0  0  0  0  0  0
   -7.7660    7.8781   -8.4603 H   0  0  0  0  0  0  0  0  0  0  0  0
  -10.0801    9.2619   -2.9210 H   0  0  0  0  0  0  0  0  0  0  0  0
   -9.3421    9.4981   -4.7150 H   0  0  0  0  0  0  0  0  0  0  0  0
   -7.1080    9.4010   -2.5439 H   0  0  0  0  0  0  0  0  0  0  0  0
   -7.5292   10.7101   -3.9190 H   0  0  0  0  0  0  0  0  0  0  0  0
  -10.5091   10.7479   -2.6621 H   0  0  0  0  0  0  0  0  0  0  0  0
   -9.5521   12.2629   -3.4191 H   0  0  0  0  0  0  0  0  0  0  0  0
  -11.2780   13.0980   -1.7303 H   0  0  0  0  0  0  0  0  0  0  0  0
  -10.5781   11.9111   -0.3480 H   0  0  0  0  0  0  0  0  0  0  0  0
   -8.0539   12.4062    0.3930 H   0  0  0  0  0  0  0  0  0  0  0  0
   -7.1287   13.8768   -0.4889 H   0  0  0  0  0  0  0  0  0  0  0  0
   -7.3410   12.6999   -2.7652 H   0  0  0  0  0  0  0  0  0  0  0  0
   -6.4350   11.6082   -1.4360 H   0  0  0  0  0  0  0  0  0  0  0  0
   -2.8878   14.7486   -6.7174 H   0  0  0  0  0  0  0  0  0  0  0  0
   -8.6153   10.5657   -1.2092 H   0  0  0  0  0  0  0  0  0  0  0  0
   -9.9129    9.8879  -11.2188 H   0  0  0  0  0  0  0  0  0  0  0  0
   -9.1351    6.9658  -11.3679 H   0  0  0  0  0  0  0  0  0  0  0  0
  -10.1023    9.5961  -13.0593 H   0  0  0  0  0  0  0  0  0  0  0  0
  -10.7556    5.3871  -11.6651 H   0  0  0  0  0  0  0  0  0  0  0  0
   -9.6399    6.2579  -13.4271 H   0  0  0  0  0  0  0  0  0  0  0  0
  -10.5913    7.9674  -14.6011 H   0  0  0  0  0  0  0  0  0  0  0  0
  -10.3158    7.1035  -10.2274 H   0  0  0  0  0  0  0  0  0  0  0  0
   -9.0476    8.3396  -12.9118 H   0  0  0  0  0  0  0  0  0  0  0  0
  -11.8755    6.5898  -11.7801 H   0  0  0  0  0  0  0  0  0  0  0  0
  -11.1926    5.9002  -13.8451 H   0  0  0  0  0  0  0  0  0  0  0  0
  -11.7877    8.0481  -13.4718 H   0  0  0  0  0  0  0  0  0  0  0  0
  -11.3775    8.7489  -11.4686 H   0  0  0  0  0  0  0  0  0  0  0  0
  1  2  2  0  0  0  0
  1  6  1  0  0  0  0
  1 51  1  0  0  0  0
  2  3  1  0  0  0  0
  2 52  1  0  0  0  0
  3  4  2  0  0  0  0
  3 37  1  0  0  0  0
  4  5  1  0  0  0  0
  4 28  1  0  0  0  0
  5  6  2  0  0  0  0
  5 53  1  0  0  0  0
  6  7  1  0  0  0  0
  7  8  1  0  0  0  0
  7 11  2  0  0  0  0
  8  9  2  0  0  0  0
  8 25  1  0  0  0  0
  9 10  1  0  0  0  0
  9 22  1  0  0  0  0
 10 11  1  0  0  0  0
 10 12  1  0  0  0  0
 12 13  1  0  0  0  0
 12 54  1  0  0  0  0
 12 55  1  0  0  0  0
 13 14  1  0  0  0  0
 13 21  1  0  0  0  0
 13 50  1  6  0  0  0
 14 15  1  0  0  0  0
 14 56  1  0  0  0  0
 14 57  1  0  0  0  0
 15 16  1  0  0  0  0
 15 20  1  0  0  0  0
 15 87  1  0  0  0  0
 16 17  1  0  0  0  0
 16 58  1  0  0  0  0
 16 59  1  0  0  0  0
 17 18  1  0  0  0  0
 17 60  1  0  0  0  0
 17 61  1  0  0  0  0
 18 19  1  0  0  0  0
 18 62  1  0  0  0  0
 18 63  1  0  0  0  0
 19 20  1  0  0  0  0
 19 64  1  0  0  0  0
 19 65  1  0  0  0  0
 20 66  1  0  0  0  0
 20 67  1  0  0  0  0
 21 68  1  0  0  0  0
 22 23  1  0  0  0  0
 22 69  1  0  0  0  0
 22 70  1  0  0  0  0
 23 24  1  0  0  0  0
 23 71  1  0  0  0  0
 23 72  1  0  0  0  0
 24 25  1  0  0  0  0
 24 26  1  0  0  0  0
 25 73  1  0  0  0  0
 25 74  1  0  0  0  0
 26 27  2  0  0  0  0
 28 29  1  0  0  0  0
 29 30  1  0  0  0  0
 29 75  1  0  0  0  0
 29 76  1  0  0  0  0
 30 31  1  0  0  0  0
 30 77  1  0  0  0  0
 30 78  1  0  0  0  0
 31 32  1  0  0  0  0
 31 36  1  0  0  0  0
 31 88  1  1  0  0  0
 32 33  1  0  0  0  0
 32 79  1  0  0  0  0
 32 80  1  0  0  0  0
 33 34  1  0  0  0  0
 33 81  1  0  0  0  0
 33 82  1  0  0  0  0
 34 35  1  0  0  0  0
 34 41  1  0  0  0  0
 34 49  1  6  0  0  0
 35 36  1  0  0  0  0
 35 83  1  0  0  0  0
 35 84  1  0  0  0  0
 36 85  1  0  0  0  0
 36 86  1  0  0  0  0
 37 38  1  0  0  0  0
 37 39  1  0  0  0  0
 37 40  1  0  0  0  0
 42 26  1  0  0  0  0
 43 42  1  0  0  0  0
 43 48  1  0  0  0  0
 44 43  1  0  0  0  0
 45 44  1  0  0  0  0
 46 45  1  0  0  0  0
 47 46  1  0  0  0  0
 48 47  1  0  0  0  0
 89 42  1  0  0  0  0
 90 44  1  0  0  0  0
 91 48  1  0  0  0  0
 92 45  1  0  0  0  0
 93 46  1  0  0  0  0
 94 47  1  0  0  0  0
 95 44  1  0  0  0  0
 96 48  1  0  0  0  0
 97 45  1  0  0  0  0
 98 46  1  0  0  0  0
 99 47  1  0  0  0  0
100 43  1  0  0  0  0
M  CHG  2  15   1  31   1
M  END
$$$$
