# Molecule written by the XED library from Cresset
@<TRIPOS>MOLECULE
CatS_255
    96    100      1
SMALL
USER_CHARGES
@<TRIPOS>ATOM
      1  C4         -0.1248   16.1700   -5.7826 C.3       1 MOL1       -0.0872
      2  C5         -1.1909   15.5858   -4.8381 C.3       1 MOL1       -0.0834
      3  C6         -1.6666   14.2212   -5.3740 C.3       1 MOL1       -0.0630
      4  N2         -2.2338   14.3438   -6.7310 N.4       1 MOL1       -0.2283
      5  C7         -1.2230   14.8907   -7.6592 C.3       1 MOL1       -0.0630
      6  C8         -0.7221   16.2750   -7.1990 C.3       1 MOL1       -0.0834
      7  C9         -2.7051   13.0260   -7.1972 C.3       1 MOL1       -0.0328
      8  C10        -3.4129   13.0567   -8.5710 C.3       1 MOL1        0.0191
      9  C11        -3.3397   11.6550   -9.2002 C.3       1 MOL1        0.0979
     10  N3         -4.3390   10.6961   -8.7084 N.pl3     1 MOL1       -0.0670
     11  C12        -5.5309   10.3251   -9.2409 C.ar      1 MOL1        0.0572
     12  C13        -6.2051    9.4820   -8.4580 C.ar      1 MOL1       -0.0684
     13  C14        -5.3401    9.2806   -7.3580 C.ar      1 MOL1        0.0392
     14  N4         -4.2645   10.0228   -7.5357 N.2       1 MOL1       -0.2943
     15  C15        -5.5280    8.4129   -6.2061 C.ar      1 MOL1       -0.0066
     16  C16        -4.4677    7.7391   -5.6282 C.ar      1 MOL1       -0.0846
     17  C17        -4.6601    6.9418   -4.5283 C.ar      1 MOL1       -0.0687
     18  C18        -5.9101    6.7697   -3.9694 C.ar      1 MOL1        0.0171
     19  C19        -6.9758    7.4400   -4.5579 C.ar      1 MOL1        0.0480
     20  C20        -6.7839    8.2539   -5.6507 C.ar      1 MOL1       -0.0655
     21  S1         -8.6623    7.2886   -3.9528 S.3       1 MOL1       -0.1783
     22  C21        -9.2127    8.9473   -3.4727 C.3       1 MOL1       -0.0087
     23  C22        -8.0197    9.8152   -3.0207 C.3       1 MOL1       -0.0441
     24  N5         -8.4069   10.8679   -2.0650 N.4       1 MOL1       -0.2286
     25  C23        -9.7687   11.3442   -2.3739 C.3       1 MOL1       -0.0622
     26  C24       -10.2311   12.4113   -1.3620 C.3       1 MOL1       -0.0749
     27  C25        -9.2443   13.5921   -1.3597 C.3       1 MOL1       -0.0340
     28  C26        -7.8201   13.0743   -1.0855 C.3       1 MOL1       -0.0749
     29  C27        -7.4532   11.9948   -2.1230 C.3       1 MOL1       -0.0622
     30  C28        -5.9448    5.8568   -2.7419 C.3       1 MOL1        0.4149
     31  F1         -4.9472    4.8881   -2.7811 F         1 MOL1       -0.1514
     32  F2         -7.1419    5.1656   -2.5930 F         1 MOL1       -0.1514
     33  F3         -5.7380    6.5908   -1.5779 F         1 MOL1       -0.1514
     34  C29        -7.5839    8.9489   -8.8237 C.3       1 MOL1        0.1169
     35  N6         -8.2562    9.7460   -9.8750 N.3       1 MOL1       -0.4606
     36  C30        -7.3183    9.9450  -11.0008 C.3       1 MOL1        0.0844
     37  C31        -6.0941   10.7930  -10.5730 C.3       1 MOL1       -0.0158
     38  S2         -9.7910    9.3100  -10.1696 S.3       1 MOL1        0.4316
     39  O3         -9.8658    7.9422   -9.7664 O.2       1 MOL1       -0.3139
     40  O4        -10.0691    9.5801  -11.5448 O.2       1 MOL1       -0.3139
     41  C32       -10.9189   10.2891   -9.1311 C.3       1 MOL1        0.0421
     42  H33        -9.5603   14.3841   -0.5172 C.3       1 MOL1       -0.0173
     43  H         -10.6681   14.8128   -0.7014 C.3       1 MOL1       -0.0891
     44  H          -9.5371   13.9348    0.5973 C.3       1 MOL1       -0.0891
     45  H          -8.8302   15.3388   -0.5349 O.3       1 MOL1       -0.4397
     46  H18        -4.5658   13.3630   -8.4240 O.3       1 MOL1       -0.4408
     47  H7          0.8142   15.4250   -5.8328 H         1 MOL1        0.0460
     48  H8         -0.7250   15.4542   -3.7390 H         1 MOL1        0.0467
     49  H9         -2.1308   16.3300   -4.7862 H         1 MOL1        0.0467
     50  H10        -2.5058   13.8240   -4.6130 H         1 MOL1        0.0529
     51  H11        -0.7430   13.4541   -5.3878 H         1 MOL1        0.0529
     52  H12        -1.7001   15.0319   -8.7497 H         1 MOL1        0.0529
     53  H13        -0.2801   14.1496   -7.7231 H         1 MOL1        0.0529
     54  H14         0.1172   16.6710   -7.9591 H         1 MOL1        0.0467
     55  H15        -1.6446   17.0419   -7.1907 H         1 MOL1        0.0467
     56  H16        -3.5299   12.6209   -6.4256 H         1 MOL1        0.0549
     57  H17        -1.8131   12.2239   -7.2247 H         1 MOL1        0.0549
     58  H19        -2.8848   13.8324   -9.3197 H         1 MOL1        0.0680
     59  H20        -3.4750   11.7687  -10.3871 H         1 MOL1        0.0624
     60  H21        -2.2549   11.1927   -8.9837 H         1 MOL1        0.0624
     61  H22        -3.5486    7.8381   -6.0089 H         1 MOL1        0.0910
     62  H23        -3.8719    6.4757   -4.1251 H         1 MOL1        0.0908
     63  H24        -7.5650    8.7321   -6.0517 H         1 MOL1        0.0929
     64  H25        -9.7311    9.4500   -4.4320 H         1 MOL1        0.0553
     65  H26       -10.0245    8.8693   -2.5915 H         1 MOL1        0.0553
     66  H27        -7.5950   10.3442   -4.0119 H         1 MOL1        0.0547
     67  H28        -7.1414    9.1330   -2.5672 H         1 MOL1        0.0547
     68  H29       -10.5488   10.4349   -2.3164 H         1 MOL1        0.0528
     69  H30        -9.7887   11.8012   -3.4839 H         1 MOL1        0.0528
     70  H31       -10.2649   11.9165   -0.2700 H         1 MOL1        0.0470
     71  H32       -11.3256   12.8012   -1.6602 H         1 MOL1        0.0470
     72  H35        -7.0418   13.9840   -1.1570 H         1 MOL1        0.0470
     73  H36        -7.7743   12.5994    0.0151 H         1 MOL1        0.0470
     74  H37        -7.4590   12.4815   -3.2210 H         1 MOL1        0.0528
     75  H38        -6.3404   11.6217   -1.8749 H         1 MOL1        0.0528
     76  H39        -7.4862    7.8081   -9.1818 H         1 MOL1        0.0628
     77  H40        -8.2798    8.9948   -7.8459 H         1 MOL1        0.0628
     78  H41        -6.9428    8.8780  -11.4009 H         1 MOL1        0.0601
     79  H42        -7.8696   10.5230  -11.8949 H         1 MOL1        0.0601
     80  H43        -6.4276   11.9413  -10.4687 H         1 MOL1        0.0516
     81  H44        -5.2557   10.6983  -11.4261 H         1 MOL1        0.0516
     82  H45       -11.0142   11.4134   -9.5423 H         1 MOL1        0.0588
     83  H46       -12.0135    9.7990   -9.1411 H         1 MOL1        0.0588
     84  H47       -10.5204   10.3165   -7.9994 H         1 MOL1        0.0588
     85  H          -2.9461   14.9137   -6.7057 H         1 MOL1        0.1921
     86  H          -8.4053   10.5166   -1.2235 H         1 MOL1        0.1920
     87  H           0.2258   17.2509   -5.3978 H         1 MOL1        0.0460
     88  H          -9.2595   14.0936   -2.4521 H         1 MOL1        0.0511
     89  H         -11.6102   14.2396   -0.2162 H         1 MOL1        0.0457
     90  H         -10.9622   15.0469   -1.8452 H         1 MOL1        0.0457
     91  H         -10.7765   15.9210   -0.2395 H         1 MOL1        0.0457
     92  H          -8.4942   13.8200    1.1798 H         1 MOL1        0.0457
     93  H          -9.8418   14.8476    1.3240 H         1 MOL1        0.0457
     94  H         -10.3323   13.1667    1.0652 H         1 MOL1        0.0457
     95  H          -7.9555   15.1820   -0.0643 H         1 MOL1        0.3291
     96  H          -5.0527   13.3893   -9.3039 H         1 MOL1        0.3291
@<TRIPOS>BOND
     1      2      1 1 
     2      3      2 1 
     3      4      3 1 
     4      5      4 1 
     5      6      1 1 
     6      6      5 1 
     7      7      4 1 
     8      8      7 1 
     9      9      8 1 
    10     10      9 1 
    11     11     10 ar
    12     12     11 ar
    13     13     12 ar
    14     14     10 ar
    15     14     13 ar
    16     15     13 1 
    17     16     15 ar
    18     17     16 ar
    19     18     17 ar
    20     19     18 ar
    21     20     15 ar
    22     20     19 ar
    23     21     19 1 
    24     22     21 1 
    25     23     22 1 
    26     24     23 1 
    27     25     24 1 
    28     26     25 1 
    29     27     26 1 
    30     28     27 1 
    31     29     24 1 
    32     29     28 1 
    33     30     18 1 
    34     31     30 1 
    35     32     30 1 
    36     33     30 1 
    37     34     12 1 
    38     35     34 1 
    39     36     35 1 
    40     37     11 1 
    41     37     36 1 
    42     38     35 1 
    43     39     38 2 
    44     40     38 2 
    45     41     38 1 
    46     42     27 1 
    47     42     43 1 
    48     42     44 1 
    49     42     45 1 
    50     46      8 1 
    51      1     87 1 
    52      4     85 1 
    53     24     86 1 
    54     27     88 1 
    55     43     89 1 
    56     43     90 1 
    57     43     91 1 
    58     44     92 1 
    59     44     93 1 
    60     44     94 1 
    61     45     95 1 
    62     46     96 1 
    63     47      1 1 
    64     48      2 1 
    65     49      2 1 
    66     50      3 1 
    67     51      3 1 
    68     52      5 1 
    69     53      5 1 
    70     54      6 1 
    71     55      6 1 
    72     56      7 1 
    73     57      7 1 
    74     58      8 1 
    75     59      9 1 
    76     60      9 1 
    77     61     16 1 
    78     62     17 1 
    79     63     20 1 
    80     64     22 1 
    81     65     22 1 
    82     66     23 1 
    83     67     23 1 
    84     68     25 1 
    85     69     25 1 
    86     70     26 1 
    87     71     26 1 
    88     72     28 1 
    89     73     28 1 
    90     74     29 1 
    91     75     29 1 
    92     76     34 1 
    93     77     34 1 
    94     78     36 1 
    95     79     36 1 
    96     80     37 1 
    97     81     37 1 
    98     82     41 1 
    99     83     41 1 
   100     84     41 1 
@<TRIPOS>SUBSTRUCTURE
     1 MOL1         1 MOLECULE          1 A
