@<TRIPOS>MOLECULE
*****
 60 63 0 0 0
SMALL
GASTEIGER

@<TRIPOS>ATOM
      1 C           5.1612    2.9370   12.2507 C.3     1  UNL1       -0.0014
      2 C           5.5910    1.9990   11.1398 C.2     1  UNL1        0.1601
      3 O           6.2400    1.0092   11.4167 O.2     1  UNL1       -0.2924
      4 C           5.1945    2.3006    9.7175 C.ar    1  UNL1        0.0172
      5 C           4.3673    3.3781    9.3908 C.ar    1  UNL1       -0.0495
      6 C           3.9172    3.5571    8.0838 C.ar    1  UNL1       -0.0396
      7 C           4.3460    2.7259    7.0376 C.ar    1  UNL1        0.0379
      8 N           3.8442    2.9030    5.6777 N.am    1  UNL1       -0.2488
      9 C           3.5689    1.8794    4.7835 C.2     1  UNL1        0.2870
     10 O           3.5045    2.0949    3.5919 O.2     1  UNL1       -0.2662
     11 C           3.6295    0.4708    5.2388 C.ar    1  UNL1        0.1896
     12 C           3.1910   -0.0553    6.4285 C.ar    1  UNL1       -0.0113
     13 C           3.6275   -1.4092    6.4243 C.ar    1  UNL1       -0.0231
     14 C           4.2634   -1.5793    5.2259 C.ar    1  UNL1        0.0928
     15 O           4.2057   -0.4755    4.4115 O.2     1  UNL1       -0.4583
     16 C           3.7200    4.3252    5.1945 C.3     1  UNL1        0.1338
     17 C           2.2801    4.6618    4.7663 C.2     1  UNL1        0.2385
     18 O           1.8113    4.2700    3.7185 O.2     1  UNL1       -0.2734
     19 N           1.4190    5.2615    5.6247 N.am    1  UNL1       -0.3132
     20 C           1.7056    6.3475    6.5742 C.3     1  UNL1        0.0156
     21 C           1.5243    7.7543    5.9528 C.3     1  UNL1       -0.0120
     22 C           0.0870    8.1756    5.6374 C.ar    1  UNL1       -0.0432
     23 C          -0.4151    9.3674    6.1732 C.ar    1  UNL1       -0.0584
     24 C          -1.6966    9.8118    5.8475 C.ar    1  UNL1       -0.0588
     25 C          -2.4976    9.0642    4.9886 C.ar    1  UNL1       -0.0264
     26 C          -2.0060    7.8795    4.4490 C.ar    1  UNL1        0.1237
     27 F          -2.7739    7.1597    3.6129 F       1  UNL1       -0.2055
     28 C          -0.7184    7.4433    4.7564 C.ar    1  UNL1       -0.0232
     29 C           4.7303    4.7906    4.1307 C.ar    1  UNL1        0.0002
     30 C           4.7013    6.1241    3.7120 C.ar    1  UNL1       -0.0534
     31 C           5.5998    6.5640    2.7440 C.ar    1  UNL1       -0.0433
     32 C           6.5176    5.6602    2.2161 C.ar    1  UNL1        0.0276
     33 N           6.5928    4.3769    2.6281 N.ar    1  UNL1       -0.2629
     34 C           5.7191    3.9642    3.5752 C.ar    1  UNL1        0.0330
     35 C           5.2902    1.7380    7.3568 C.ar    1  UNL1       -0.0396
     36 C           5.6500    1.4843    8.6797 C.ar    1  UNL1       -0.0495
     37 H           5.6097    2.6373   13.2014 H       1  UNL1        0.0309
     38 H           4.0748    2.9287   12.3624 H       1  UNL1        0.0309
     39 H           5.4841    3.9569   12.0310 H       1  UNL1        0.0309
     40 H           4.0247    4.0684   10.1566 H       1  UNL1        0.0625
     41 H           3.2161    4.3622    7.9012 H       1  UNL1        0.0636
     42 H           2.6727    0.4511    7.2355 H       1  UNL1        0.0657
     43 H           3.5190   -2.1327    7.2247 H       1  UNL1        0.0649
     44 H           4.8041   -2.4173    4.8000 H       1  UNL1        0.1029
     45 H           3.9395    4.9741    6.0357 H       1  UNL1        0.0652
     46 H           0.4582    5.2537    5.3171 H       1  UNL1        0.1488
     47 H           1.0286    6.2444    7.4269 H       1  UNL1        0.0465
     48 H           2.7257    6.2724    6.9486 H       1  UNL1        0.0465
     49 H           1.9551    8.4742    6.6530 H       1  UNL1        0.0328
     50 H           2.1192    7.8282    5.0410 H       1  UNL1        0.0328
     51 H           0.1997    9.9724    6.8356 H       1  UNL1        0.0620
     52 H          -2.0692   10.7475    6.2574 H       1  UNL1        0.0619
     53 H          -3.4967    9.4089    4.7320 H       1  UNL1        0.0646
     54 H          -0.3509    6.5367    4.2863 H       1  UNL1        0.0649
     55 H           3.9821    6.8203    4.1316 H       1  UNL1        0.0622
     56 H           5.5835    7.5959    2.4025 H       1  UNL1        0.0633
     57 H           7.2273    5.9578    1.4465 H       1  UNL1        0.0829
     58 H           5.8321    2.9232    3.8665 H       1  UNL1        0.0833
     59 H           5.7079    1.0994    6.5827 H       1  UNL1        0.0636
     60 H           6.2995    0.6390    8.8972 H       1  UNL1        0.0625
@<TRIPOS>BOND
     1     1     2    1
     2     2     3    2
     3     2     4    1
     4     4     5   ar
     5     5     6   ar
     6     6     7   ar
     7     7     8    1
     8     8     9   am
     9     9    10    2
    10     9    11    1
    11    11    12   ar
    12    12    13   ar
    13    13    14   ar
    14    14    15   ar
    15    17    18    2
    16    17    19   am
    17    19    20    1
    18    20    21    1
    19    21    22    1
    20    22    23   ar
    21    23    24   ar
    22    24    25   ar
    23    25    26   ar
    24    26    27    1
    25    26    28   ar
    26    16    29    1
    27    29    30   ar
    28    30    31   ar
    29    31    32   ar
    30    32    33   ar
    31    33    34   ar
    32     7    35   ar
    33    35    36   ar
    34    36     4   ar
    35    15    11   ar
    36    28    22   ar
    37    34    29   ar
    38     1    37    1
    39     1    38    1
    40     1    39    1
    41     5    40    1
    42     6    41    1
    43    12    42    1
    44    13    43    1
    45    14    44    1
    46    16    45    1
    47    19    46    1
    48    20    47    1
    49    20    48    1
    50    21    49    1
    51    21    50    1
    52    23    51    1
    53    24    52    1
    54    25    53    1
    55    28    54    1
    56    30    55    1
    57    31    56    1
    58    32    57    1
    59    34    58    1
    60    35    59    1
    61    36    60    1
    62    16    17    1
    63    16     8    1
