@<TRIPOS>MOLECULE
*****
 68 72 0 0 0
SMALL
GASTEIGER

@<TRIPOS>ATOM
      1 O           2.4312   -2.0732   -1.4144 O.2     1  UNL1       -0.2734
      2 C           2.4784   -0.9894   -1.9553 C.2     1  UNL1        0.2385
      3 N           2.4798   -1.0341   -3.3259 N.am    1  UNL1       -0.3132
      4 C           2.1911    0.0470   -4.2851 C.3     1  UNL1        0.0156
      5 C           2.4641   -0.1979   -5.7779 C.3     1  UNL1       -0.0120
      6 C           1.5504   -1.1446   -6.5458 C.ar    1  UNL1       -0.0432
      7 C           0.2193   -1.3959   -6.1876 C.ar    1  UNL1       -0.0584
      8 C          -0.5800   -2.2132   -6.9897 C.ar    1  UNL1       -0.0588
      9 C          -0.0642   -2.7718   -8.1580 C.ar    1  UNL1       -0.0264
     10 C           1.2503   -2.5038   -8.5267 C.ar    1  UNL1        0.1237
     11 F           1.7486   -3.0155   -9.6654 F       1  UNL1       -0.2055
     12 C           2.0504   -1.6930   -7.7284 C.ar    1  UNL1       -0.0232
     13 C           2.8602    0.2752   -1.1238 C.3     1  UNL1        0.1338
     14 C           2.4011    0.2671    0.3599 C.ar    1  UNL1        0.0002
     15 C           2.7017   -0.8117    1.1996 C.ar    1  UNL1       -0.0534
     16 C           2.1930   -0.8426    2.4961 C.ar    1  UNL1       -0.0433
     17 C           1.4186    0.2229    2.9455 C.ar    1  UNL1        0.0276
     18 N           1.2007    1.3232    2.1978 N.ar    1  UNL1       -0.2629
     19 C           1.7154    1.3469    0.9484 C.ar    1  UNL1        0.0330
     20 N           2.6120    1.5872   -1.7977 N.am    1  UNL1       -0.2488
     21 C           3.5978    2.5499   -1.8558 C.2     1  UNL1        0.2870
     22 O           3.2835    3.7213   -1.8190 O.2     1  UNL1       -0.2662
     23 C           5.0428    2.1575   -1.8940 C.ar    1  UNL1        0.1896
     24 C           5.6121    0.9689   -2.3015 C.ar    1  UNL1       -0.0113
     25 C           7.0002    1.0788   -2.0218 C.ar    1  UNL1       -0.0231
     26 C           7.1653    2.3481   -1.5472 C.ar    1  UNL1        0.0928
     27 O           6.0024    3.0841   -1.5246 O.2     1  UNL1       -0.4583
     28 C           1.2271    1.8766   -2.1931 C.ar    1  UNL1        0.0379
     29 C           0.1422    1.1768   -1.6397 C.ar    1  UNL1       -0.0400
     30 C          -1.1560    1.3755   -2.0721 C.ar    1  UNL1       -0.0565
     31 C          -1.4291    2.2020   -3.1567 C.ar    1  UNL1       -0.0442
     32 C          -2.8633    2.3906   -3.6531 C.3     1  UNL1       -0.0158
     33 C          -3.6265    3.4320   -2.8194 C.3     1  UNL1       -0.0462
     34 C          -5.1217    3.0976   -2.9744 C.3     1  UNL1       -0.0525
     35 C          -5.2069    1.6786   -3.5701 C.3     1  UNL1       -0.0525
     36 C          -3.7701    1.1377   -3.6073 C.3     1  UNL1       -0.0462
     37 C          -0.3632    2.8788   -3.7555 C.ar    1  UNL1       -0.0565
     38 C           0.9407    2.7335   -3.2702 C.ar    1  UNL1       -0.0400
     39 H           2.3805   -1.9584   -3.7186 H       1  UNL1        0.1488
     40 H           1.1403    0.3184   -4.1750 H       1  UNL1        0.0465
     41 H           2.8231    0.8989   -4.0487 H       1  UNL1        0.0465
     42 H           2.3777    0.7767   -6.2667 H       1  UNL1        0.0328
     43 H           3.5051   -0.5044   -5.8947 H       1  UNL1        0.0328
     44 H          -0.2163   -0.9498   -5.2973 H       1  UNL1        0.0620
     45 H          -1.6130   -2.4073   -6.7109 H       1  UNL1        0.0619
     46 H          -0.6870   -3.4039   -8.7863 H       1  UNL1        0.0646
     47 H           3.0674   -1.4700   -8.0431 H       1  UNL1        0.0649
     48 H           3.9203    0.1298   -0.9862 H       1  UNL1        0.0652
     49 H           3.3129   -1.6389    0.8510 H       1  UNL1        0.0622
     50 H           2.3851   -1.6932    3.1446 H       1  UNL1        0.0633
     51 H           0.9693    0.2223    3.9369 H       1  UNL1        0.0829
     52 H           1.5001    2.2629    0.4029 H       1  UNL1        0.0833
     53 H           5.1267    0.0833   -2.6981 H       1  UNL1        0.0657
     54 H           7.7544    0.3066   -2.1400 H       1  UNL1        0.0649
     55 H           8.0408    2.8789   -1.1904 H       1  UNL1        0.1029
     56 H           0.2596    0.4350   -0.8637 H       1  UNL1        0.0636
     57 H          -1.9443    0.8500   -1.5454 H       1  UNL1        0.0621
     58 H          -2.8424    2.7358   -4.6906 H       1  UNL1        0.0349
     59 H          -3.3442    3.3466   -1.7667 H       1  UNL1        0.0271
     60 H          -3.4035    4.4485   -3.1526 H       1  UNL1        0.0271
     61 H          -5.6209    3.1457   -2.0033 H       1  UNL1        0.0265
     62 H          -5.6060    3.8113   -3.6448 H       1  UNL1        0.0265
     63 H          -5.8515    1.0334   -2.9667 H       1  UNL1        0.0265
     64 H          -5.6144    1.7235   -4.5822 H       1  UNL1        0.0265
     65 H          -3.6037    0.4804   -4.4639 H       1  UNL1        0.0271
     66 H          -3.6223    0.5505   -2.7020 H       1  UNL1        0.0271
     67 H          -0.5433    3.5235   -4.6125 H       1  UNL1        0.0621
     68 H           1.7432    3.2518   -3.7903 H       1  UNL1        0.0636
@<TRIPOS>BOND
     1     1     2    2
     2     2     3   am
     3     3     4    1
     4     4     5    1
     5     5     6    1
     6     6     7   ar
     7     7     8   ar
     8     8     9   ar
     9     9    10   ar
    10    10    11    1
    11    10    12   ar
    12    14    15   ar
    13    15    16   ar
    14    16    17   ar
    15    17    18   ar
    16    18    19   ar
    17    13    20    1
    18    20    21   am
    19    21    22    2
    20    21    23    1
    21    23    24   ar
    22    24    25   ar
    23    25    26   ar
    24    26    27   ar
    25    20    28    1
    26    28    29   ar
    27    29    30   ar
    28    30    31   ar
    29    31    32    1
    30    32    33    1
    31    33    34    1
    32    34    35    1
    33    35    36    1
    34    31    37   ar
    35    37    38   ar
    36    12     6   ar
    37    19    14   ar
    38    27    23   ar
    39    38    28   ar
    40    36    32    1
    41     3    39    1
    42     4    40    1
    43     4    41    1
    44     5    42    1
    45     5    43    1
    46     7    44    1
    47     8    45    1
    48     9    46    1
    49    12    47    1
    50    13    48    1
    51    15    49    1
    52    16    50    1
    53    17    51    1
    54    19    52    1
    55    24    53    1
    56    25    54    1
    57    26    55    1
    58    29    56    1
    59    30    57    1
    60    32    58    1
    61    33    59    1
    62    33    60    1
    63    34    61    1
    64    34    62    1
    65    35    63    1
    66    35    64    1
    67    36    65    1
    68    36    66    1
    69    37    67    1
    70    38    68    1
    71    13    14    1
    72    13     2    1
