@<TRIPOS>MOLECULE
*****
 66 69 0 0 0
SMALL
GASTEIGER

@<TRIPOS>ATOM
      1 C          -2.8955   -1.6861   -2.2323 C.3     1  UNL1       -0.0560
      2 C          -2.2675   -1.6835   -3.6533 C.3     1  UNL1       -0.0127
      3 C          -3.3514   -2.1486   -4.6533 C.3     1  UNL1       -0.0560
      4 C          -1.8654   -0.2187   -3.9638 C.3     1  UNL1       -0.0560
      5 C          -1.0485   -2.6134   -3.7791 C.ar    1  UNL1       -0.0419
      6 C          -0.6580   -3.4703   -2.7571 C.ar    1  UNL1       -0.0563
      7 C           0.4888   -4.2432   -2.8650 C.ar    1  UNL1       -0.0400
      8 C           1.3104   -4.2627   -4.0087 C.ar    1  UNL1        0.0379
      9 N           2.6062   -4.9954   -4.1165 N.am    1  UNL1       -0.2475
     10 C           3.4398   -4.9349   -5.2211 C.2     1  UNL1        0.3069
     11 O           4.1879   -5.8562   -5.4991 O.2     1  UNL1       -0.2644
     12 C           3.4684   -3.6949   -6.0274 C.ar    1  UNL1        0.2842
     13 N           3.3835   -2.6942   -6.5421 N.ar    1  UNL1       -0.2135
     14 C           2.9251   -1.8144   -7.0775 C.ar    1  UNL1        0.0664
     15 C           3.3827   -2.7402   -7.9640 C.ar    1  UNL1        0.1126
     16 O           3.9212   -3.7781   -7.3138 O.2     1  UNL1       -0.4404
     17 C           3.1952   -5.8884   -3.0321 C.3     1  UNL1        0.1339
     18 C           2.4100   -6.2786   -1.7819 C.2     1  UNL1        0.2385
     19 O           2.4720   -5.6168   -0.7626 O.2     1  UNL1       -0.2734
     20 N           1.4798   -7.2576   -1.8385 N.am    1  UNL1       -0.3132
     21 C           1.5740   -8.5217   -2.5765 C.3     1  UNL1        0.0156
     22 C           1.9744   -9.6622   -1.6189 C.3     1  UNL1       -0.0120
     23 C           0.9044   -9.9090   -0.5628 C.ar    1  UNL1       -0.0432
     24 C          -0.0879  -10.8660   -0.7873 C.ar    1  UNL1       -0.0584
     25 C          -1.0979  -11.0685    0.1520 C.ar    1  UNL1       -0.0588
     26 C          -1.1270  -10.3104    1.3207 C.ar    1  UNL1       -0.0264
     27 C          -0.1386   -9.3563    1.5493 C.ar    1  UNL1        0.1237
     28 F          -0.1725   -8.6163    2.6711 F       1  UNL1       -0.2055
     29 C           0.8781   -9.1577    0.6168 C.ar    1  UNL1       -0.0232
     30 C           4.5522   -5.4130   -2.5098 C.ar    1  UNL1        0.0002
     31 C           4.8289   -4.0656   -2.2659 C.ar    1  UNL1       -0.0534
     32 C           6.0257   -3.7285   -1.6368 C.ar    1  UNL1       -0.0433
     33 C           6.9082   -4.7435   -1.2680 C.ar    1  UNL1        0.0276
     34 N           6.6597   -6.0506   -1.5026 N.ar    1  UNL1       -0.2629
     35 C           5.4975   -6.3655   -2.1164 C.ar    1  UNL1        0.0330
     36 C           0.7471   -3.5709   -5.1013 C.ar    1  UNL1       -0.0400
     37 C          -0.3371   -2.7039   -4.9727 C.ar    1  UNL1       -0.0563
     38 H          -3.7232   -0.9763   -2.1663 H       1  UNL1        0.0238
     39 H          -2.1555   -1.4042   -1.4780 H       1  UNL1        0.0238
     40 H          -3.2900   -2.6728   -1.9771 H       1  UNL1        0.0238
     41 H          -4.2504   -1.5337   -4.5757 H       1  UNL1        0.0238
     42 H          -2.9894   -2.0901   -5.6821 H       1  UNL1        0.0238
     43 H          -3.6271   -3.1874   -4.4539 H       1  UNL1        0.0238
     44 H          -1.0785    0.1162   -3.2827 H       1  UNL1        0.0238
     45 H          -1.4975   -0.1096   -4.9857 H       1  UNL1        0.0238
     46 H          -2.7197    0.4529   -3.8454 H       1  UNL1        0.0238
     47 H          -1.2279   -3.5551   -1.8378 H       1  UNL1        0.0621
     48 H           0.6488   -4.8317   -1.9945 H       1  UNL1        0.0636
     49 H           2.3805   -0.8986   -7.2717 H       1  UNL1        0.0862
     50 H           3.3088   -2.8400   -9.0439 H       1  UNL1        0.1046
     51 H           3.3891   -6.8407   -3.5215 H       1  UNL1        0.0652
     52 H           0.8895   -7.3198   -1.0226 H       1  UNL1        0.1488
     53 H           0.5946   -8.7402   -3.0097 H       1  UNL1        0.0465
     54 H           2.2975   -8.4652   -3.3894 H       1  UNL1        0.0465
     55 H           2.1400  -10.5741   -2.1972 H       1  UNL1        0.0328
     56 H           2.9251   -9.4198   -1.1357 H       1  UNL1        0.0328
     57 H          -0.0818  -11.4534   -1.7025 H       1  UNL1        0.0620
     58 H          -1.8681  -11.8134   -0.0311 H       1  UNL1        0.0619
     59 H          -1.9198  -10.4609    2.0494 H       1  UNL1        0.0646
     60 H           1.6383   -8.4022    0.8050 H       1  UNL1        0.0649
     61 H           4.1099   -3.2921   -2.5226 H       1  UNL1        0.0622
     62 H           6.2593   -2.6907   -1.4139 H       1  UNL1        0.0633
     63 H           7.8410   -4.5227   -0.7527 H       1  UNL1        0.0829
     64 H           5.3107   -7.4301   -2.2456 H       1  UNL1        0.0833
     65 H           1.1179   -3.6856   -6.1071 H       1  UNL1        0.0636
     66 H          -0.6422   -2.1177   -5.8358 H       1  UNL1        0.0621
@<TRIPOS>BOND
     1     1     2    1
     2     2     3    1
     3     2     4    1
     4     2     5    1
     5     5     6   ar
     6     6     7   ar
     7     7     8   ar
     8     8     9    1
     9     9    10   am
    10    10    11    2
    11    10    12    1
    12    12    13   ar
    13    13    14   ar
    14    14    15   ar
    15    15    16   ar
    16    18    19    2
    17    18    20   am
    18    20    21    1
    19    21    22    1
    20    22    23    1
    21    23    24   ar
    22    24    25   ar
    23    25    26   ar
    24    26    27   ar
    25    27    28    1
    26    27    29   ar
    27    17    30    1
    28    30    31   ar
    29    31    32   ar
    30    32    33   ar
    31    33    34   ar
    32    34    35   ar
    33     8    36   ar
    34    36    37   ar
    35    37     5   ar
    36    16    12   ar
    37    29    23   ar
    38    35    30   ar
    39     1    38    1
    40     1    39    1
    41     1    40    1
    42     3    41    1
    43     3    42    1
    44     3    43    1
    45     4    44    1
    46     4    45    1
    47     4    46    1
    48     6    47    1
    49     7    48    1
    50    14    49    1
    51    15    50    1
    52    17    51    1
    53    20    52    1
    54    21    53    1
    55    21    54    1
    56    22    55    1
    57    22    56    1
    58    24    57    1
    59    25    58    1
    60    26    59    1
    61    29    60    1
    62    31    61    1
    63    32    62    1
    64    33    63    1
    65    35    64    1
    66    36    65    1
    67    37    66    1
    68    17    18    1
    69    17     9    1
