@<TRIPOS>MOLECULE
*****
 67 70 0 0 0
SMALL
GASTEIGER

@<TRIPOS>ATOM
      1 C          -3.4682   -7.2005    0.5155 C.3     1  UNL1       -0.0586
      2 C          -3.0496   -7.4669   -0.9552 C.3     1  UNL1       -0.0209
      3 C          -4.2945   -7.9518   -1.7285 C.3     1  UNL1       -0.0586
      4 C          -2.2869   -6.3082   -1.6454 C.ar    1  UNL1       -0.0314
      5 C          -2.4339   -5.0108   -1.1327 C.ar    1  UNL1       -0.0363
      6 C          -1.6579   -3.9090   -1.5432 C.ar    1  UNL1        0.0381
      7 N          -1.8651   -2.5421   -1.0164 N.am    1  UNL1       -0.2488
      8 C          -1.3305   -1.3843   -1.5441 C.2     1  UNL1        0.2870
      9 O          -1.0283   -0.4585   -0.8151 O.2     1  UNL1       -0.2662
     10 C          -1.0162   -1.2888   -2.9868 C.ar    1  UNL1        0.1896
     11 C          -1.6422   -1.9329   -4.0276 C.ar    1  UNL1       -0.0113
     12 C          -0.8398   -1.6628   -5.1706 C.ar    1  UNL1       -0.0231
     13 C           0.1695   -0.8567   -4.7217 C.ar    1  UNL1        0.0928
     14 O           0.0470   -0.5086   -3.3990 O.2     1  UNL1       -0.4583
     15 C          -2.6295   -2.3717    0.2677 C.3     1  UNL1        0.1338
     16 C          -3.7747   -1.3515    0.1782 C.2     1  UNL1        0.2385
     17 O          -3.8416   -0.3610    0.8744 O.2     1  UNL1       -0.2734
     18 N          -4.8224   -1.6108   -0.6498 N.am    1  UNL1       -0.3132
     19 C          -5.0196   -2.7597   -1.5521 C.3     1  UNL1        0.0156
     20 C          -5.9188   -3.8746   -0.9694 C.3     1  UNL1       -0.0120
     21 C          -7.3916   -3.4936   -0.8742 C.ar    1  UNL1       -0.0432
     22 C          -8.1457   -3.8860    0.2359 C.ar    1  UNL1       -0.0584
     23 C          -9.4894   -3.5255    0.3392 C.ar    1  UNL1       -0.0588
     24 C         -10.0894   -2.7670   -0.6639 C.ar    1  UNL1       -0.0264
     25 C          -9.3498   -2.3978   -1.7828 C.ar    1  UNL1        0.1237
     26 F          -9.9223   -1.6747   -2.7604 F       1  UNL1       -0.2055
     27 C          -8.0154   -2.7721   -1.8980 C.ar    1  UNL1       -0.0232
     28 C          -1.7167   -2.2949    1.5000 C.ar    1  UNL1        0.0002
     29 C          -1.2409   -1.1034    2.0612 C.ar    1  UNL1       -0.0534
     30 C          -0.3974   -1.1600    3.1674 C.ar    1  UNL1       -0.0433
     31 C          -0.0475   -2.4033    3.6891 C.ar    1  UNL1        0.0276
     32 N          -0.4926   -3.5658    3.1649 N.ar    1  UNL1       -0.2629
     33 C          -1.3095   -3.4958    2.0902 C.ar    1  UNL1        0.0330
     34 C          -0.6432   -4.2000   -2.4609 C.ar    1  UNL1       -0.0397
     35 C          -0.5898   -5.4289   -3.1088 C.ar    1  UNL1       -0.0481
     36 C          -1.4131   -6.4966   -2.7389 C.ar    1  UNL1        0.0583
     37 C          -1.3521   -7.7715   -3.6043 C.3     1  UNL1        0.4177
     38 F          -2.3404   -7.7758   -4.5171 F       1  UNL1       -0.1659
     39 F          -0.2142   -7.8743   -4.3147 F       1  UNL1       -0.1659
     40 F          -1.4331   -8.9314   -2.9340 F       1  UNL1       -0.1659
     41 H          -4.3076   -6.5028    0.5736 H       1  UNL1        0.0235
     42 H          -2.6345   -6.7958    1.0945 H       1  UNL1        0.0235
     43 H          -3.7848   -8.1296    0.9954 H       1  UNL1        0.0235
     44 H          -2.3574   -8.3043   -0.8708 H       1  UNL1        0.0344
     45 H          -5.0633   -7.1778   -1.7585 H       1  UNL1        0.0235
     46 H          -4.0503   -8.2342   -2.7508 H       1  UNL1        0.0235
     47 H          -4.7156   -8.8346   -1.2398 H       1  UNL1        0.0235
     48 H          -3.1990   -4.8920   -0.3902 H       1  UNL1        0.0639
     49 H          -2.5137   -2.5760   -3.9899 H       1  UNL1        0.0657
     50 H          -0.9723   -2.0631   -6.1700 H       1  UNL1        0.0649
     51 H           1.0488   -0.4500   -5.2091 H       1  UNL1        0.1029
     52 H          -3.2290   -3.2433    0.4710 H       1  UNL1        0.0652
     53 H          -5.5792   -0.9434   -0.6342 H       1  UNL1        0.1488
     54 H          -5.4361   -2.3866   -2.4873 H       1  UNL1        0.0465
     55 H          -4.0709   -3.1973   -1.8269 H       1  UNL1        0.0465
     56 H          -5.8308   -4.7627   -1.5997 H       1  UNL1        0.0328
     57 H          -5.5426   -4.1573    0.0176 H       1  UNL1        0.0328
     58 H          -7.6901   -4.4765    1.0280 H       1  UNL1        0.0620
     59 H         -10.0695   -3.8311    1.2062 H       1  UNL1        0.0619
     60 H         -11.1314   -2.4700   -0.5785 H       1  UNL1        0.0646
     61 H          -7.4732   -2.4878   -2.7943 H       1  UNL1        0.0649
     62 H          -1.5053   -0.1341    1.6487 H       1  UNL1        0.0622
     63 H          -0.0138   -0.2463    3.6145 H       1  UNL1        0.0633
     64 H           0.6121   -2.4886    4.5504 H       1  UNL1        0.0829
     65 H          -1.6360   -4.4546    1.6938 H       1  UNL1        0.0833
     66 H           0.0909   -3.4574   -2.7528 H       1  UNL1        0.0636
     67 H           0.1177   -5.5381   -3.9268 H       1  UNL1        0.0624
@<TRIPOS>BOND
     1     1     2    1
     2     2     3    1
     3     2     4    1
     4     4     5   ar
     5     5     6   ar
     6     6     7    1
     7     7     8   am
     8     8     9    2
     9     8    10    1
    10    10    11   ar
    11    11    12   ar
    12    12    13   ar
    13    13    14   ar
    14    16    17    2
    15    16    18   am
    16    18    19    1
    17    19    20    1
    18    20    21    1
    19    21    22   ar
    20    22    23   ar
    21    23    24   ar
    22    24    25   ar
    23    25    26    1
    24    25    27   ar
    25    15    28    1
    26    28    29   ar
    27    29    30   ar
    28    30    31   ar
    29    31    32   ar
    30    32    33   ar
    31     6    34   ar
    32    34    35   ar
    33    35    36   ar
    34    36    37    1
    35    37    38    1
    36    37    39    1
    37    37    40    1
    38    36     4   ar
    39    14    10   ar
    40    27    21   ar
    41    33    28   ar
    42     1    41    1
    43     1    42    1
    44     1    43    1
    45     2    44    1
    46     3    45    1
    47     3    46    1
    48     3    47    1
    49     5    48    1
    50    11    49    1
    51    12    50    1
    52    13    51    1
    53    15    52    1
    54    18    53    1
    55    19    54    1
    56    19    55    1
    57    20    56    1
    58    20    57    1
    59    22    58    1
    60    23    59    1
    61    24    60    1
    62    27    61    1
    63    29    62    1
    64    30    63    1
    65    31    64    1
    66    33    65    1
    67    34    66    1
    68    35    67    1
    69    15    16    1
    70    15     7    1
