@<TRIPOS>MOLECULE
*****
 56 59 0 0 0
SMALL
GASTEIGER

@<TRIPOS>ATOM
      1 N           4.2339   -9.2160    1.6770 N.1     1  UNL1       -0.1909
      2 C           4.2732   -8.0796    1.6144 C.1     1  UNL1        0.0992
      3 C           4.3506   -6.6399    1.5502 C.ar    1  UNL1        0.0519
      4 C           5.3817   -6.0298    0.8448 C.ar    1  UNL1       -0.0426
      5 C           5.5491   -4.6474    0.9092 C.ar    1  UNL1       -0.0390
      6 C           4.6025   -3.8241    1.5241 C.ar    1  UNL1        0.0379
      7 N           4.8075   -2.3794    1.5817 N.am    1  UNL1       -0.2488
      8 C           5.0195   -1.6991    2.7728 C.2     1  UNL1        0.2870
      9 O           5.2115   -0.4990    2.7836 O.2     1  UNL1       -0.2662
     10 C           4.6638   -2.3666    4.0505 C.ar    1  UNL1        0.1896
     11 C           5.0727   -3.5969    4.5054 C.ar    1  UNL1       -0.0113
     12 C           4.2952   -3.8475    5.6703 C.ar    1  UNL1       -0.0231
     13 C           3.5210   -2.7329    5.8327 C.ar    1  UNL1        0.0928
     14 O           3.8062   -1.7351    4.9326 O.2     1  UNL1       -0.4583
     15 C           4.7241   -1.5312    0.3067 C.3     1  UNL1        0.1338
     16 C           3.8281   -0.2855    0.4462 C.2     1  UNL1        0.2385
     17 O           4.2398    0.8065    0.1131 O.2     1  UNL1       -0.2734
     18 N           2.4988   -0.4124    0.6933 N.am    1  UNL1       -0.3132
     19 C           1.7856   -1.5847    1.2065 C.3     1  UNL1        0.0156
     20 C           1.4939   -1.3829    2.7061 C.3     1  UNL1       -0.0120
     21 C           0.1563   -0.7365    3.0174 C.ar    1  UNL1       -0.0432
     22 C          -0.5320    0.0517    2.0881 C.ar    1  UNL1       -0.0584
     23 C          -1.7837    0.5729    2.4022 C.ar    1  UNL1       -0.0588
     24 C          -2.3487    0.3275    3.6514 C.ar    1  UNL1       -0.0264
     25 C          -1.6509   -0.4285    4.5897 C.ar    1  UNL1        0.1237
     26 F          -2.1882   -0.6617    5.7993 F       1  UNL1       -0.2055
     27 C          -0.4026   -0.9570    4.2769 C.ar    1  UNL1       -0.0232
     28 C           4.4366   -2.1614   -1.0922 C.ar    1  UNL1        0.0002
     29 C           5.3026   -3.0847   -1.6893 C.ar    1  UNL1       -0.0534
     30 C           4.9675   -3.6827   -2.9025 C.ar    1  UNL1       -0.0433
     31 C           3.8310   -3.2529   -3.5768 C.ar    1  UNL1        0.0276
     32 N           3.0779   -2.2338   -3.1267 N.ar    1  UNL1       -0.2629
     33 C           3.3923   -1.7030   -1.9256 C.ar    1  UNL1        0.0330
     34 C           3.5484   -4.4607    2.2011 C.ar    1  UNL1       -0.0390
     35 C           3.4545   -5.8508    2.2629 C.ar    1  UNL1       -0.0426
     36 H           6.0930   -6.6342    0.2865 H       1  UNL1        0.0631
     37 H           6.4531   -4.2235    0.4968 H       1  UNL1        0.0636
     38 H           5.7771   -4.2800    4.0449 H       1  UNL1        0.0657
     39 H           4.2792   -4.7571    6.2611 H       1  UNL1        0.0649
     40 H           2.7269   -2.4924    6.5319 H       1  UNL1        0.1029
     41 H           5.7253   -1.0963    0.2261 H       1  UNL1        0.0652
     42 H           1.9462    0.4283    0.6288 H       1  UNL1        0.1488
     43 H           0.8542   -1.7285    0.6530 H       1  UNL1        0.0465
     44 H           2.3719   -2.4840    1.0447 H       1  UNL1        0.0465
     45 H           1.5145   -2.3477    3.2094 H       1  UNL1        0.0328
     46 H           2.2856   -0.7766    3.1505 H       1  UNL1        0.0328
     47 H          -0.1120    0.2602    1.1080 H       1  UNL1        0.0620
     48 H          -2.3199    1.1670    1.6669 H       1  UNL1        0.0619
     49 H          -3.3293    0.7274    3.8930 H       1  UNL1        0.0646
     50 H           0.1331   -1.5501    5.0154 H       1  UNL1        0.0649
     51 H           6.2549   -3.3282   -1.2460 H       1  UNL1        0.0622
     52 H           5.5930   -4.4627   -3.3276 H       1  UNL1        0.0633
     53 H           3.5308   -3.6832   -4.5300 H       1  UNL1        0.0829
     54 H           2.7771   -0.8410   -1.6890 H       1  UNL1        0.0833
     55 H           2.8447   -3.8874    2.7869 H       1  UNL1        0.0636
     56 H           2.6915   -6.3140    2.8863 H       1  UNL1        0.0631
@<TRIPOS>BOND
     1     1     2    3
     2     2     3    1
     3     3     4   ar
     4     4     5   ar
     5     5     6   ar
     6     6     7    1
     7     7     8   am
     8     8     9    2
     9     8    10    1
    10    10    11   ar
    11    11    12   ar
    12    12    13   ar
    13    13    14   ar
    14    16    17    2
    15    16    18   am
    16    18    19    1
    17    19    20    1
    18    20    21    1
    19    21    22   ar
    20    22    23   ar
    21    23    24   ar
    22    24    25   ar
    23    25    26    1
    24    25    27   ar
    25    15    28    1
    26    28    29   ar
    27    29    30   ar
    28    30    31   ar
    29    31    32   ar
    30    32    33   ar
    31     6    34   ar
    32    34    35   ar
    33    35     3   ar
    34    14    10   ar
    35    27    21   ar
    36    33    28   ar
    37     4    36    1
    38     5    37    1
    39    11    38    1
    40    12    39    1
    41    13    40    1
    42    15    41    1
    43    18    42    1
    44    19    43    1
    45    19    44    1
    46    20    45    1
    47    20    46    1
    48    22    47    1
    49    23    48    1
    50    24    49    1
    51    27    50    1
    52    29    51    1
    53    30    52    1
    54    31    53    1
    55    33    54    1
    56    34    55    1
    57    35    56    1
    58    15    16    1
    59    15     7    1
