@<TRIPOS>MOLECULE
*****
 60 63 0 0 0
SMALL
GASTEIGER

@<TRIPOS>ATOM
      1 C           4.1593    3.4964   12.0673 C.3     1  UNL1       -0.0014
      2 C           4.7625    2.5237   11.0714 C.2     1  UNL1        0.1601
      3 O           5.3625    1.5495   11.4804 O.2     1  UNL1       -0.2924
      4 C           4.5820    2.7680    9.5947 C.ar    1  UNL1        0.0172
      5 C           3.8110    3.8270    9.1144 C.ar    1  UNL1       -0.0495
      6 C           3.5466    3.9482    7.7518 C.ar    1  UNL1       -0.0396
      7 C           4.1115    3.0803    6.8083 C.ar    1  UNL1        0.0379
      8 N           3.7731    3.1989    5.3886 N.am    1  UNL1       -0.2488
      9 C           3.5396    2.1407    4.5275 C.2     1  UNL1        0.2870
     10 O           3.5038    2.3102    3.3229 O.2     1  UNL1       -0.2662
     11 C           3.6504    0.7564    5.0306 C.ar    1  UNL1        0.1896
     12 C           3.0880    0.2300    6.1688 C.ar    1  UNL1       -0.0113
     13 C           3.5999   -1.0938    6.2598 C.ar    1  UNL1       -0.0231
     14 C           4.4028   -1.2475    5.1636 C.ar    1  UNL1        0.0928
     15 O           4.3925   -0.1657    4.3181 O.2     1  UNL1       -0.4583
     16 C           3.6898    4.6019    4.8420 C.3     1  UNL1        0.1338
     17 C           2.2657    4.9357    4.3616 C.2     1  UNL1        0.2385
     18 O           1.8291    4.5185    3.3100 O.2     1  UNL1       -0.2734
     19 N           1.3777    5.5466    5.1836 N.am    1  UNL1       -0.3132
     20 C           1.6312    6.6525    6.1198 C.3     1  UNL1        0.0156
     21 C           1.3851    8.0455    5.4949 C.3     1  UNL1       -0.0120
     22 C          -0.0718    8.4112    5.2018 C.ar    1  UNL1       -0.0432
     23 C          -0.6001    9.5980    5.7232 C.ar    1  UNL1       -0.0584
     24 C          -1.8984    9.9993    5.4094 C.ar    1  UNL1       -0.0588
     25 C          -2.6909    9.2121    4.5783 C.ar    1  UNL1       -0.0264
     26 C          -2.1754    8.0292    4.0577 C.ar    1  UNL1        0.1237
     27 F          -2.9355    7.2703    3.2496 F       1  UNL1       -0.2055
     28 C          -0.8714    7.6357    4.3530 C.ar    1  UNL1       -0.0232
     29 C           4.7217    5.0107    3.7723 C.ar    1  UNL1        0.0002
     30 C           4.6991    6.3215    3.2847 C.ar    1  UNL1       -0.0534
     31 C           5.5968    6.7053    2.2917 C.ar    1  UNL1       -0.0433
     32 C           6.5076    5.7701    1.8081 C.ar    1  UNL1        0.0276
     33 N           6.5805    4.5114    2.2900 N.ar    1  UNL1       -0.2629
     34 C           5.7092    4.1538    3.2618 C.ar    1  UNL1        0.0330
     35 C           5.0068    2.1145    7.2917 C.ar    1  UNL1       -0.0396
     36 C           5.1810    1.9162    8.6635 C.ar    1  UNL1       -0.0495
     37 H           4.4615    3.2411   13.0862 H       1  UNL1        0.0309
     38 H           3.0685    3.4743   12.0141 H       1  UNL1        0.0309
     39 H           4.4995    4.5130   11.8587 H       1  UNL1        0.0309
     40 H           3.3626    4.5458    9.7940 H       1  UNL1        0.0625
     41 H           2.8748    4.7359    7.4466 H       1  UNL1        0.0636
     42 H           2.4305    0.7191    6.8783 H       1  UNL1        0.0657
     43 H           3.4215   -1.8090    7.0554 H       1  UNL1        0.0649
     44 H           5.0430   -2.0596    4.8372 H       1  UNL1        0.1029
     45 H           3.9035    5.2814    5.6615 H       1  UNL1        0.0652
     46 H           0.4258    5.5243    4.8506 H       1  UNL1        0.1488
     47 H           0.9780    6.5255    6.9879 H       1  UNL1        0.0465
     48 H           2.6628    6.6294    6.4693 H       1  UNL1        0.0465
     49 H           1.7976    8.7830    6.1879 H       1  UNL1        0.0328
     50 H           1.9664    8.1364    4.5752 H       1  UNL1        0.0328
     51 H           0.0075   10.2337    6.3632 H       1  UNL1        0.0620
     52 H          -2.2905   10.9330    5.8054 H       1  UNL1        0.0619
     53 H          -3.7021    9.5248    4.3285 H       1  UNL1        0.0646
     54 H          -0.4871    6.7293    3.8967 H       1  UNL1        0.0649
     55 H           3.9807    7.0418    3.6657 H       1  UNL1        0.0622
     56 H           5.5828    7.7168    1.8938 H       1  UNL1        0.0633
     57 H           7.2126    6.0215    1.0177 H       1  UNL1        0.0829
     58 H           5.8176    3.1281    3.6047 H       1  UNL1        0.0833
     59 H           5.5280    1.4484    6.6095 H       1  UNL1        0.0636
     60 H           5.7935    1.0840    9.0031 H       1  UNL1        0.0625
@<TRIPOS>BOND
     1     1     2    1
     2     2     3    2
     3     2     4    1
     4     4     5   ar
     5     5     6   ar
     6     6     7   ar
     7     7     8    1
     8     8     9   am
     9     9    10    2
    10     9    11    1
    11    11    12   ar
    12    12    13   ar
    13    13    14   ar
    14    14    15   ar
    15    17    18    2
    16    17    19   am
    17    19    20    1
    18    20    21    1
    19    21    22    1
    20    22    23   ar
    21    23    24   ar
    22    24    25   ar
    23    25    26   ar
    24    26    27    1
    25    26    28   ar
    26    16    29    1
    27    29    30   ar
    28    30    31   ar
    29    31    32   ar
    30    32    33   ar
    31    33    34   ar
    32     7    35   ar
    33    35    36   ar
    34    36     4   ar
    35    15    11   ar
    36    28    22   ar
    37    34    29   ar
    38     1    37    1
    39     1    38    1
    40     1    39    1
    41     5    40    1
    42     6    41    1
    43    12    42    1
    44    13    43    1
    45    14    44    1
    46    16    45    1
    47    19    46    1
    48    20    47    1
    49    20    48    1
    50    21    49    1
    51    21    50    1
    52    23    51    1
    53    24    52    1
    54    25    53    1
    55    28    54    1
    56    30    55    1
    57    31    56    1
    58    32    57    1
    59    34    58    1
    60    35    59    1
    61    36    60    1
    62    16    17    1
    63    16     8    1
