@<TRIPOS>MOLECULE
*****
 59 62 0 0 0
SMALL
GASTEIGER

@<TRIPOS>ATOM
      1 C           0.8481   -0.2287    0.1268 C.3     1  UNL1        0.0788
      2 O           0.3271    0.6449   -0.9031 O.3     1  UNL1       -0.4951
      3 C           0.6919    1.9731   -1.0188 C.ar    1  UNL1        0.1202
      4 C           1.5930    2.5831   -0.1477 C.ar    1  UNL1       -0.0182
      5 C           1.8726    3.9402   -0.2644 C.ar    1  UNL1       -0.0368
      6 C           1.3228    4.7210   -1.2961 C.ar    1  UNL1        0.0381
      7 N           1.6574    6.1332   -1.4739 N.am    1  UNL1       -0.2488
      8 C           0.8505    7.0282   -2.1489 C.2     1  UNL1        0.2870
      9 O           1.3410    7.9336   -2.7940 O.2     1  UNL1       -0.2662
     10 C          -0.6260    6.8472   -2.1450 C.ar    1  UNL1        0.1896
     11 C          -1.3978    6.1001   -1.2866 C.ar    1  UNL1       -0.0113
     12 C          -2.7069    6.1148   -1.8376 C.ar    1  UNL1       -0.0231
     13 C          -2.6174    6.8993   -2.9524 C.ar    1  UNL1        0.0928
     14 O          -1.3750    7.4575   -3.1342 O.2     1  UNL1       -0.4583
     15 C           3.0777    6.5837   -1.2413 C.3     1  UNL1        0.1338
     16 C           3.6144    6.4726    0.1898 C.2     1  UNL1        0.2385
     17 O           4.6300    5.8564    0.4419 O.2     1  UNL1       -0.2734
     18 N           2.9535    7.0553    1.2236 N.am    1  UNL1       -0.3132
     19 C           1.7377    7.8822    1.1834 C.3     1  UNL1        0.0156
     20 C           0.4741    7.1198    1.6341 C.3     1  UNL1       -0.0120
     21 C           0.4225    6.8587    3.1329 C.ar    1  UNL1       -0.0432
     22 C           0.1908    7.9128    4.0211 C.ar    1  UNL1       -0.0584
     23 C           0.1129    7.6760    5.3932 C.ar    1  UNL1       -0.0588
     24 C           0.2592    6.3816    5.8873 C.ar    1  UNL1       -0.0264
     25 C           0.4838    5.3277    5.0045 C.ar    1  UNL1        0.1237
     26 F           0.6146    4.0764    5.4780 F       1  UNL1       -0.2055
     27 C           0.5665    5.5615    3.6328 C.ar    1  UNL1       -0.0232
     28 C           4.0961    6.0671   -2.2720 C.ar    1  UNL1        0.0002
     29 C           5.0416    6.9524   -2.7982 C.ar    1  UNL1       -0.0534
     30 C           5.9984    6.4829   -3.6955 C.ar    1  UNL1       -0.0433
     31 C           5.9870    5.1370   -4.0528 C.ar    1  UNL1        0.0276
     32 N           5.0856    4.2619   -3.5592 N.ar    1  UNL1       -0.2629
     33 C           4.1665    4.7286   -2.6840 C.ar    1  UNL1        0.0330
     34 C           0.4988    4.0577   -2.2226 C.ar    1  UNL1       -0.0368
     35 C           0.1412    2.7226   -2.0520 C.ar    1  UNL1       -0.0182
     36 H           0.3946   -1.2170    0.0167 H       1  UNL1        0.0660
     37 H           0.5994    0.1778    1.1113 H       1  UNL1        0.0660
     38 H           1.9333   -0.3120    0.0190 H       1  UNL1        0.0660
     39 H           2.0840    2.0168    0.6386 H       1  UNL1        0.0655
     40 H           2.5529    4.3463    0.4665 H       1  UNL1        0.0637
     41 H          -1.0898    5.5328   -0.4170 H       1  UNL1        0.0657
     42 H          -3.5709    5.5672   -1.4767 H       1  UNL1        0.0649
     43 H          -3.3373    7.1522   -3.7226 H       1  UNL1        0.1029
     44 H           3.0885    7.6705   -1.3491 H       1  UNL1        0.0652
     45 H           3.3542    6.9252    2.1404 H       1  UNL1        0.1488
     46 H           1.8886    8.7409    1.8429 H       1  UNL1        0.0465
     47 H           1.5840    8.2729    0.1764 H       1  UNL1        0.0465
     48 H          -0.4067    7.7012    1.3508 H       1  UNL1        0.0328
     49 H           0.4126    6.1735    1.0973 H       1  UNL1        0.0328
     50 H           0.0646    8.9257    3.6453 H       1  UNL1        0.0620
     51 H          -0.0671    8.5010    6.0784 H       1  UNL1        0.0619
     52 H           0.1943    6.1948    6.9568 H       1  UNL1        0.0646
     53 H           0.7353    4.7271    2.9562 H       1  UNL1        0.0649
     54 H           5.0469    7.9984   -2.5028 H       1  UNL1        0.0622
     55 H           6.7479    7.1541   -4.1071 H       1  UNL1        0.0633
     56 H           6.7187    4.7280   -4.7472 H       1  UNL1        0.0829
     57 H           3.4891    3.9699   -2.3116 H       1  UNL1        0.0833
     58 H           0.0867    4.5828   -3.0799 H       1  UNL1        0.0637
     59 H          -0.5634    2.2594   -2.7388 H       1  UNL1        0.0655
@<TRIPOS>BOND
     1     1     2    1
     2     2     3    1
     3     3     4   ar
     4     4     5   ar
     5     5     6   ar
     6     6     7    1
     7     7     8   am
     8     8     9    2
     9     8    10    1
    10    10    11   ar
    11    11    12   ar
    12    12    13   ar
    13    13    14   ar
    14     7    15    1
    15    15    16    1
    16    16    17    2
    17    16    18   am
    18    18    19    1
    19    19    20    1
    20    20    21    1
    21    21    22   ar
    22    22    23   ar
    23    23    24   ar
    24    24    25   ar
    25    25    26    1
    26    25    27   ar
    27    15    28    1
    28    28    29   ar
    29    29    30   ar
    30    30    31   ar
    31    31    32   ar
    32    32    33   ar
    33     6    34   ar
    34    34    35   ar
    35    35     3   ar
    36    14    10   ar
    37    27    21   ar
    38    33    28   ar
    39     1    36    1
    40     1    37    1
    41     1    38    1
    42     4    39    1
    43     5    40    1
    44    11    41    1
    45    12    42    1
    46    13    43    1
    47    15    44    1
    48    18    45    1
    49    19    46    1
    50    19    47    1
    51    20    48    1
    52    20    49    1
    53    22    50    1
    54    23    51    1
    55    24    52    1
    56    27    53    1
    57    29    54    1
    58    30    55    1
    59    31    56    1
    60    33    57    1
    61    34    58    1
    62    35    59    1
