@<TRIPOS>MOLECULE
*****
 69 72 0 0 0
SMALL
GASTEIGER

@<TRIPOS>ATOM
      1 C          -2.3178   -1.9885   -1.2103 C.3     1  UNL1       -0.0560
      2 C          -2.4355   -0.9658   -2.3729 C.3     1  UNL1       -0.0127
      3 C          -3.8855   -1.0819   -2.9184 C.3     1  UNL1       -0.0560
      4 C          -2.2558    0.4583   -1.7941 C.3     1  UNL1       -0.0560
      5 C          -1.3625   -1.2056   -3.4592 C.ar    1  UNL1       -0.0419
      6 C          -0.0341   -1.4682   -3.1046 C.ar    1  UNL1       -0.0563
      7 C           0.9673   -1.5621   -4.0690 C.ar    1  UNL1       -0.0400
      8 C           0.6695   -1.5042   -5.4359 C.ar    1  UNL1        0.0378
      9 N           1.7063   -1.6154   -6.4561 N.am    1  UNL1       -0.2501
     10 C           1.6508   -0.9739   -7.6747 C.2     1  UNL1        0.2701
     11 O           2.1852   -1.4779   -8.6440 O.2     1  UNL1       -0.2679
     12 C           0.8022    0.2698   -7.8707 C.ar    1  UNL1        0.1259
     13 C           0.4688    1.1567   -6.8361 C.ar    1  UNL1       -0.0312
     14 C          -0.4643    2.1666   -7.0667 C.ar    1  UNL1       -0.0582
     15 C          -1.0264    2.2856   -8.3340 C.ar    1  UNL1       -0.0436
     16 C          -0.5906    1.4292   -9.3411 C.ar    1  UNL1        0.0284
     17 N           0.3153    0.4501   -9.1264 N.ar    1  UNL1       -0.2503
     18 C           2.8370   -2.5836   -6.2378 C.3     1  UNL1        0.1338
     19 C           2.4644   -3.8103   -5.3946 C.2     1  UNL1        0.2385
     20 O           2.8138   -3.9393   -4.2387 O.2     1  UNL1       -0.2734
     21 N           1.5547   -4.6851   -5.8775 N.am    1  UNL1       -0.3132
     22 C           1.6623   -5.3324   -7.1886 C.3     1  UNL1        0.0156
     23 C           2.6732   -6.5070   -7.1555 C.3     1  UNL1       -0.0120
     24 C           2.2702   -7.6914   -6.2707 C.ar    1  UNL1       -0.0432
     25 C           2.0755   -8.9529   -6.8439 C.ar    1  UNL1       -0.0584
     26 C           1.7435  -10.0521   -6.0511 C.ar    1  UNL1       -0.0588
     27 C           1.5895   -9.9018   -4.6752 C.ar    1  UNL1       -0.0264
     28 C           1.7899   -8.6535   -4.0951 C.ar    1  UNL1        0.1237
     29 F           1.6477   -8.5044   -2.7665 F       1  UNL1       -0.2055
     30 C           2.1464   -7.5599   -4.8812 C.ar    1  UNL1       -0.0232
     31 C           4.1207   -1.9149   -5.7186 C.ar    1  UNL1        0.0002
     32 C           4.2108   -0.5426   -5.4493 C.ar    1  UNL1       -0.0534
     33 C           5.4110   -0.0173   -4.9761 C.ar    1  UNL1       -0.0433
     34 C           6.4953   -0.8703   -4.7839 C.ar    1  UNL1        0.0276
     35 N           6.4392   -2.1919   -5.0558 N.ar    1  UNL1       -0.2629
     36 C           5.2705   -2.6894   -5.5207 C.ar    1  UNL1        0.0330
     37 C          -0.6748   -1.3257   -5.7894 C.ar    1  UNL1       -0.0400
     38 C          -1.6553   -1.1089   -4.8251 C.ar    1  UNL1       -0.0563
     39 H          -3.1436   -1.8722   -0.5033 H       1  UNL1        0.0238
     40 H          -1.3951   -1.8542   -0.6429 H       1  UNL1        0.0238
     41 H          -2.3425   -3.0121   -1.5915 H       1  UNL1        0.0238
     42 H          -4.6173   -1.0137   -2.1096 H       1  UNL1        0.0238
     43 H          -4.1126   -0.2779   -3.6222 H       1  UNL1        0.0238
     44 H          -4.0337   -2.0394   -3.4242 H       1  UNL1        0.0238
     45 H          -1.2629    0.5774   -1.3535 H       1  UNL1        0.0238
     46 H          -2.3677    1.2104   -2.5790 H       1  UNL1        0.0238
     47 H          -2.9974    0.6638   -1.0180 H       1  UNL1        0.0238
     48 H           0.2504   -1.5713   -2.0617 H       1  UNL1        0.0621
     49 H           1.9893   -1.6959   -3.7299 H       1  UNL1        0.0636
     50 H           0.9100    1.0572   -5.8479 H       1  UNL1        0.0640
     51 H          -0.7646    2.8366   -6.2653 H       1  UNL1        0.0619
     52 H          -1.7851    3.0376   -8.5376 H       1  UNL1        0.0633
     53 H          -0.9947    1.4900  -10.3501 H       1  UNL1        0.0830
     54 H           3.1077   -3.0179   -7.2007 H       1  UNL1        0.0652
     55 H           1.1583   -5.2974   -5.1814 H       1  UNL1        0.1488
     56 H           0.6769   -5.7167   -7.4663 H       1  UNL1        0.0465
     57 H           1.9648   -4.6060   -7.9465 H       1  UNL1        0.0465
     58 H           2.8155   -6.8565   -8.1808 H       1  UNL1        0.0328
     59 H           3.6459   -6.1340   -6.8256 H       1  UNL1        0.0328
     60 H           2.1962   -9.0914   -7.9156 H       1  UNL1        0.0620
     61 H           1.6066  -11.0299   -6.5061 H       1  UNL1        0.0619
     62 H           1.3245  -10.7556   -4.0559 H       1  UNL1        0.0646
     63 H           2.3319   -6.6096   -4.3916 H       1  UNL1        0.0649
     64 H           3.3675    0.1247   -5.5988 H       1  UNL1        0.0622
     65 H           5.5009    1.0437   -4.7567 H       1  UNL1        0.0633
     66 H           7.4459   -0.4999   -4.4040 H       1  UNL1        0.0829
     67 H           5.2697   -3.7593   -5.7207 H       1  UNL1        0.0833
     68 H          -0.9708   -1.2783   -6.8340 H       1  UNL1        0.0636
     69 H          -2.6525   -0.8559   -5.1704 H       1  UNL1        0.0621
@<TRIPOS>BOND
     1     1     2    1
     2     2     3    1
     3     2     4    1
     4     2     5    1
     5     5     6   ar
     6     6     7   ar
     7     7     8   ar
     8     8     9    1
     9     9    10   am
    10    10    11    2
    11    10    12    1
    12    12    13   ar
    13    13    14   ar
    14    14    15   ar
    15    15    16   ar
    16    16    17   ar
    17    19    20    2
    18    19    21   am
    19    21    22    1
    20    22    23    1
    21    23    24    1
    22    24    25   ar
    23    25    26   ar
    24    26    27   ar
    25    27    28   ar
    26    28    29    1
    27    28    30   ar
    28    18    31    1
    29    31    32   ar
    30    32    33   ar
    31    33    34   ar
    32    34    35   ar
    33    35    36   ar
    34     8    37   ar
    35    37    38   ar
    36    38     5   ar
    37    17    12   ar
    38    30    24   ar
    39    36    31   ar
    40     1    39    1
    41     1    40    1
    42     1    41    1
    43     3    42    1
    44     3    43    1
    45     3    44    1
    46     4    45    1
    47     4    46    1
    48     4    47    1
    49     6    48    1
    50     7    49    1
    51    13    50    1
    52    14    51    1
    53    15    52    1
    54    16    53    1
    55    18    54    1
    56    21    55    1
    57    22    56    1
    58    22    57    1
    59    23    58    1
    60    23    59    1
    61    25    60    1
    62    26    61    1
    63    27    62    1
    64    30    63    1
    65    32    64    1
    66    33    65    1
    67    34    66    1
    68    36    67    1
    69    37    68    1
    70    38    69    1
    71    18    19    1
    72    18     9    1
