@<TRIPOS>MOLECULE
*****
 65 68 0 0 0
SMALL
GASTEIGER

@<TRIPOS>ATOM
      1 C          -1.1643    1.2361    0.5345 C.3     1  UNL1       -0.0428
      2 C          -0.6448   -0.0247   -0.2029 C.3     1  UNL1        0.0766
      3 C          -1.2603   -1.2609    0.5004 C.3     1  UNL1       -0.0428
      4 C           0.8270   -0.0660   -0.0605 C.1     1  UNL1        0.0734
      5 N           1.9553   -0.0719    0.0677 N.1     1  UNL1       -0.1957
      6 C          -0.9907   -0.0334   -1.7035 C.ar    1  UNL1       -0.0279
      7 C          -0.7518   -1.1747   -2.4681 C.ar    1  UNL1       -0.0553
      8 C          -0.9847   -1.1845   -3.8376 C.ar    1  UNL1       -0.0399
      9 C          -1.4616   -0.0584   -4.5259 C.ar    1  UNL1        0.0379
     10 N          -1.6014   -0.0398   -5.9935 N.am    1  UNL1       -0.2488
     11 C          -2.0264    1.0541   -6.7225 C.2     1  UNL1        0.2870
     12 O          -2.7827    0.9021   -7.6637 O.2     1  UNL1       -0.2662
     13 C          -1.6395    2.4291   -6.3103 C.ar    1  UNL1        0.1896
     14 C          -0.5788    2.8158   -5.5231 C.ar    1  UNL1       -0.0113
     15 C          -0.8435    4.1658   -5.1665 C.ar    1  UNL1       -0.0231
     16 C          -2.0039    4.4860   -5.8132 C.ar    1  UNL1        0.0928
     17 O          -2.4695    3.4861   -6.6339 O.2     1  UNL1       -0.4583
     18 C          -1.6358   -1.3646   -6.7176 C.3     1  UNL1        0.1338
     19 C          -0.2644   -2.0800   -6.7734 C.2     1  UNL1        0.2385
     20 O          -0.0415   -3.1560   -6.2572 O.2     1  UNL1       -0.2734
     21 N           0.7719   -1.5704   -7.4753 N.am    1  UNL1       -0.3132
     22 C           1.0213   -0.2055   -7.9407 C.3     1  UNL1        0.0156
     23 C           1.8730    0.6094   -6.9359 C.3     1  UNL1       -0.0120
     24 C           3.3501    0.2230   -6.7691 C.ar    1  UNL1       -0.0432
     25 C           4.2929    1.2414   -6.5811 C.ar    1  UNL1       -0.0584
     26 C           5.6349    0.9426   -6.3424 C.ar    1  UNL1       -0.0588
     27 C           6.0581   -0.3824   -6.2921 C.ar    1  UNL1       -0.0264
     28 C           5.1322   -1.4027   -6.4773 C.ar    1  UNL1        0.1237
     29 F           5.5315   -2.6852   -6.4206 F       1  UNL1       -0.2055
     30 C           3.7900   -1.1072   -6.7033 C.ar    1  UNL1       -0.0232
     31 C          -2.8187   -2.2587   -6.2605 C.ar    1  UNL1        0.0002
     32 C          -2.8395   -3.6488   -6.4519 C.ar    1  UNL1       -0.0534
     33 C          -3.8785   -4.4071   -5.9201 C.ar    1  UNL1       -0.0433
     34 C          -4.9182   -3.7601   -5.2607 C.ar    1  UNL1        0.0276
     35 N          -4.9754   -2.4171   -5.1425 N.ar    1  UNL1       -0.2629
     36 C          -3.9479   -1.6946   -5.6452 C.ar    1  UNL1        0.0330
     37 C          -1.8897    1.0002   -3.7075 C.ar    1  UNL1       -0.0399
     38 C          -1.5876    1.0518   -2.3502 C.ar    1  UNL1       -0.0553
     39 H          -2.2431    1.3455    0.3988 H       1  UNL1        0.0248
     40 H          -0.9674    1.1738    1.6074 H       1  UNL1        0.0248
     41 H          -0.6744    2.1400    0.1619 H       1  UNL1        0.0248
     42 H          -2.3297   -1.3272    0.2864 H       1  UNL1        0.0248
     43 H          -0.7903   -2.1899    0.1691 H       1  UNL1        0.0248
     44 H          -1.1317   -1.2020    1.5837 H       1  UNL1        0.0248
     45 H          -0.3623   -2.0788   -2.0085 H       1  UNL1        0.0621
     46 H          -0.8033   -2.1229   -4.3278 H       1  UNL1        0.0636
     47 H           0.2134    2.2032   -5.1129 H       1  UNL1        0.0657
     48 H          -0.2903    4.7704   -4.4553 H       1  UNL1        0.0649
     49 H          -2.6358    5.3666   -5.7772 H       1  UNL1        0.1029
     50 H          -1.8115   -1.1751   -7.7794 H       1  UNL1        0.0652
     51 H           1.5896   -2.1590   -7.4939 H       1  UNL1        0.1488
     52 H           1.5533   -0.2623   -8.8941 H       1  UNL1        0.0465
     53 H           0.0728    0.3018   -8.1215 H       1  UNL1        0.0465
     54 H           1.8228    1.6548   -7.2514 H       1  UNL1        0.0328
     55 H           1.4002    0.5566   -5.9549 H       1  UNL1        0.0328
     56 H           3.9821    2.2834   -6.5989 H       1  UNL1        0.0620
     57 H           6.3521    1.7442   -6.1842 H       1  UNL1        0.0619
     58 H           7.1017   -0.6199   -6.0993 H       1  UNL1        0.0646
     59 H           3.1063   -1.9390   -6.8050 H       1  UNL1        0.0649
     60 H          -2.0518   -4.1641   -6.9915 H       1  UNL1        0.0622
     61 H          -3.8733   -5.4904   -6.0130 H       1  UNL1        0.0633
     62 H          -5.7443   -4.3174   -4.8230 H       1  UNL1        0.0829
     63 H          -4.0549   -0.6192   -5.5232 H       1  UNL1        0.0833
     64 H          -2.4467    1.8398   -4.1037 H       1  UNL1        0.0636
     65 H          -1.8383    1.9620   -1.8153 H       1  UNL1        0.0621
@<TRIPOS>BOND
     1     1     2    1
     2     2     3    1
     3     2     4    1
     4     4     5    3
     5     2     6    1
     6     6     7   ar
     7     7     8   ar
     8     8     9   ar
     9     9    10    1
    10    10    11   am
    11    11    12    2
    12    11    13    1
    13    13    14   ar
    14    14    15   ar
    15    15    16   ar
    16    16    17   ar
    17    10    18    1
    18    18    19    1
    19    19    20    2
    20    19    21   am
    21    21    22    1
    22    22    23    1
    23    23    24    1
    24    24    25   ar
    25    25    26   ar
    26    26    27   ar
    27    27    28   ar
    28    28    29    1
    29    28    30   ar
    30    18    31    1
    31    31    32   ar
    32    32    33   ar
    33    33    34   ar
    34    34    35   ar
    35    35    36   ar
    36     9    37   ar
    37    37    38   ar
    38    38     6   ar
    39    17    13   ar
    40    30    24   ar
    41    36    31   ar
    42     1    39    1
    43     1    40    1
    44     1    41    1
    45     3    42    1
    46     3    43    1
    47     3    44    1
    48     7    45    1
    49     8    46    1
    50    14    47    1
    51    15    48    1
    52    16    49    1
    53    18    50    1
    54    21    51    1
    55    22    52    1
    56    22    53    1
    57    23    54    1
    58    23    55    1
    59    25    56    1
    60    26    57    1
    61    27    58    1
    62    30    59    1
    63    32    60    1
    64    33    61    1
    65    34    62    1
    66    36    63    1
    67    37    64    1
    68    38    65    1
