@<TRIPOS>MOLECULE
*****
 54 57 0 0 0
SMALL
GASTEIGER

@<TRIPOS>ATOM
      1 O           3.3669    3.0445   -0.8558 O.2     1  UNL1       -0.2734
      2 C           2.5736    2.1400   -0.6985 C.2     1  UNL1        0.2385
      3 N           1.3296    2.3363   -1.2033 N.am    1  UNL1       -0.3132
      4 C           0.3350    1.3229   -1.5847 C.3     1  UNL1        0.0156
      5 C          -1.0995    1.8653   -1.6599 C.3     1  UNL1       -0.0120
      6 C          -1.4686    2.6928   -2.8853 C.ar    1  UNL1       -0.0445
      7 C          -0.5290    3.3674   -3.6754 C.ar    1  UNL1       -0.0584
      8 C          -0.9471    4.1450   -4.7541 C.ar    1  UNL1       -0.0601
      9 C          -2.3023    4.2525   -5.0574 C.ar    1  UNL1       -0.0434
     10 C          -3.2392    3.5735   -4.2834 C.ar    1  UNL1        0.0412
     11 CL         -4.9245    3.6972   -4.6514 Cl      1  UNL1       -0.0835
     12 C          -2.8237    2.7992   -3.2040 C.ar    1  UNL1       -0.0402
     13 C           2.8848    1.0659    0.3568 C.3     1  UNL1        0.1339
     14 C           2.3828   -0.3569    0.0707 C.ar    1  UNL1        0.0002
     15 C           2.3831   -0.8562   -1.2352 C.ar    1  UNL1       -0.0534
     16 C           1.6826   -2.0274   -1.5110 C.ar    1  UNL1       -0.0433
     17 C           1.0674   -2.7082   -0.4628 C.ar    1  UNL1        0.0276
     18 N           1.1892   -2.3230    0.8255 N.ar    1  UNL1       -0.2629
     19 C           1.8731   -1.1854    1.0805 C.ar    1  UNL1        0.0330
     20 N           2.6177    1.5838    1.7392 N.am    1  UNL1       -0.2474
     21 C           3.5051    1.3693    2.7661 C.2     1  UNL1        0.2871
     22 O           3.0785    1.1660    3.8848 O.2     1  UNL1       -0.2662
     23 C           4.9657    1.3087    2.4814 C.ar    1  UNL1        0.1896
     24 C           5.6589    1.9389    1.4732 C.ar    1  UNL1       -0.0113
     25 C           7.0058    1.5090    1.5972 C.ar    1  UNL1       -0.0231
     26 C           7.0203    0.7064    2.7024 C.ar    1  UNL1        0.0928
     27 O           5.8012    0.6106    3.3337 O.2     1  UNL1       -0.4583
     28 C           1.2860    2.0751    2.0647 C.ar    1  UNL1        0.0559
     29 C           0.1059    1.3852    1.7516 C.ar    1  UNL1       -0.0373
     30 C          -1.1239    1.8800    2.1688 C.ar    1  UNL1       -0.0418
     31 C          -1.1606    3.0568    2.9068 C.ar    1  UNL1        0.0277
     32 N          -0.0433    3.7451    3.2277 N.ar    1  UNL1       -0.2614
     33 C           1.1479    3.2543    2.8089 C.ar    1  UNL1        0.0490
     34 H           1.2127    3.2096   -1.6945 H       1  UNL1        0.1488
     35 H           0.6155    0.8955   -2.5521 H       1  UNL1        0.0465
     36 H           0.3104    0.5230   -0.8544 H       1  UNL1        0.0465
     37 H          -1.7630    0.9972   -1.6280 H       1  UNL1        0.0328
     38 H          -1.3087    2.4446   -0.7583 H       1  UNL1        0.0328
     39 H           0.5340    3.3058   -3.4649 H       1  UNL1        0.0620
     40 H          -0.2134    4.6742   -5.3572 H       1  UNL1        0.0618
     41 H          -2.6261    4.8656   -5.8945 H       1  UNL1        0.0632
     42 H          -3.5645    2.2796   -2.6000 H       1  UNL1        0.0635
     43 H           3.9512    0.9352    0.2218 H       1  UNL1        0.0652
     44 H           2.8283   -0.2876   -2.0481 H       1  UNL1        0.0622
     45 H           1.5775   -2.3793   -2.5338 H       1  UNL1        0.0633
     46 H           0.4565   -3.5911   -0.6409 H       1  UNL1        0.0829
     47 H           1.8912   -0.8900    2.1286 H       1  UNL1        0.0833
     48 H           5.2814    2.6074    0.7091 H       1  UNL1        0.0657
     49 H           7.8329    1.7580    0.9402 H       1  UNL1        0.0649
     50 H           7.8145    0.1401    3.1748 H       1  UNL1        0.1029
     51 H           0.1019    0.4592    1.2036 H       1  UNL1        0.0637
     52 H          -2.0403    1.3444    1.9306 H       1  UNL1        0.0633
     53 H          -2.1032    3.4648    3.2677 H       1  UNL1        0.0829
     54 H           2.0175    3.8294    3.1198 H       1  UNL1        0.0848
@<TRIPOS>BOND
     1     1     2    2
     2     2     3   am
     3     3     4    1
     4     4     5    1
     5     5     6    1
     6     6     7   ar
     7     7     8   ar
     8     8     9   ar
     9     9    10   ar
    10    10    11    1
    11    10    12   ar
    12    14    15   ar
    13    15    16   ar
    14    16    17   ar
    15    17    18   ar
    16    18    19   ar
    17    13    20    1
    18    20    21   am
    19    21    22    2
    20    21    23    1
    21    23    24   ar
    22    24    25   ar
    23    25    26   ar
    24    26    27   ar
    25    20    28    1
    26    28    29   ar
    27    29    30   ar
    28    30    31   ar
    29    31    32   ar
    30    32    33   ar
    31    12     6   ar
    32    19    14   ar
    33    27    23   ar
    34    33    28   ar
    35     3    34    1
    36     4    35    1
    37     4    36    1
    38     5    37    1
    39     5    38    1
    40     7    39    1
    41     8    40    1
    42     9    41    1
    43    12    42    1
    44    13    43    1
    45    15    44    1
    46    16    45    1
    47    17    46    1
    48    19    47    1
    49    24    48    1
    50    25    49    1
    51    26    50    1
    52    29    51    1
    53    30    52    1
    54    31    53    1
    55    33    54    1
    56    13    14    1
    57    13     2    1
