lig_18626-1
     RDKit          3D

 38 39  0  0  0  0  0  0  0  0999 V2000
   23.9630   12.4500   30.2900 C   0  0  0  0  0  0  0  0  0  0  0  0
   23.2570   11.1110   30.5190 C   0  0  0  0  0  0  0  0  0  0  0  0
   22.1170   11.3550   31.3380 O   0  0  0  0  0  0  0  0  0  0  0  0
   21.3340   10.2930   31.7570 C   0  0  0  0  0  0  0  0  0  0  0  0
   21.7030    9.0460   31.3550 N   0  0  0  0  0  0  0  0  0  0  0  0
   20.9400    8.0080   31.7250 C   0  0  0  0  0  0  0  0  0  0  0  0
   19.8170    8.1340   32.5270 C   0  0  0  0  0  0  0  0  0  0  0  0
   19.4420    9.4020   32.9320 C   0  0  0  0  0  0  0  0  0  0  0  0
   18.2880    9.4650   33.7020 N   0  0  0  0  0  0  0  0  0  0  0  0
   20.2000   10.5200   32.5450 C   0  0  0  0  0  0  0  0  0  0  0  0
   19.8480   11.8870   32.9080 C   0  0  0  0  0  0  0  0  0  0  0  0
   19.5760   12.9770   33.1890 N   0  0  0  0  0  0  0  0  0  0  0  0
   21.4300    6.8390   31.1870 N   0  0  0  0  0  0  0  0  0  0  0  0
   20.8470    5.6460   31.0340 C   0  0  0  0  0  0  0  0  0  0  0  0
   19.7110    5.3700   31.4140 O   0  0  0  0  0  0  0  0  0  0  0  0
   21.6400    4.6100   30.2450 C   0  0  0  0  0  0  0  0  0  0  0  0
   23.0890    4.4690   30.6920 C   0  0  0  0  0  0  0  0  0  0  0  0
   23.4120    3.6310   31.7620 C   0  0  0  0  0  0  0  0  0  0  0  0
   24.7310    3.5230   32.1960 C   0  0  0  0  0  0  0  0  0  0  0  0
   25.1130    2.5200   33.5450 Cl  0  0  0  0  0  0  0  0  0  0  0  0
   25.7380    4.2390   31.5500 C   0  0  0  0  0  0  0  0  0  0  0  0
   25.4250    5.0710   30.4730 C   0  0  0  0  0  0  0  0  0  0  0  0
   24.1020    5.1880   30.0460 C   0  0  0  0  0  0  0  0  0  0  0  0
   24.8480   12.3250   29.6660 H   0  0  0  0  0  0  0  0  0  0  0  0
   23.3000   13.1560   29.7920 H   0  0  0  0  0  0  0  0  0  0  0  0
   24.2760   12.8940   31.2350 H   0  0  0  0  0  0  0  0  0  0  0  0
   22.9540   10.6740   29.5650 H   0  0  0  0  0  0  0  0  0  0  0  0
   23.9410   10.4120   31.0050 H   0  0  0  0  0  0  0  0  0  0  0  0
   19.2330    7.2770   32.8170 H   0  0  0  0  0  0  0  0  0  0  0  0
   17.8290    8.6090   34.0010 H   0  0  0  0  0  0  0  0  0  0  0  0
   17.8920   10.3660   33.9620 H   0  0  0  0  0  0  0  0  0  0  0  0
   22.3540    6.9750   30.8230 H   0  0  0  0  0  0  0  0  0  0  0  0
   21.1450    3.6420   30.2910 H   0  0  0  0  0  0  0  0  0  0  0  0
   21.5980    4.9430   29.2150 H   0  0  0  0  0  0  0  0  0  0  0  0
   22.6440    3.0570   32.2590 H   0  0  0  0  0  0  0  0  0  0  0  0
   26.7580    4.1510   31.8920 H   0  0  0  0  0  0  0  0  0  0  0  0
   26.2070    5.6290   29.9750 H   0  0  0  0  0  0  0  0  0  0  0  0
   23.8710    5.8360   29.2120 H   0  0  0  0  0  0  0  0  0  0  0  0
  1  2  1  0
  1 24  1  0
  1 25  1  0
  1 26  1  0
  2  3  1  0
  2 27  1  0
  2 28  1  0
  3  4  1  0
  4 10  2  0
  4  5  1  0
  5  6  2  0
  6  7  1  0
  6 13  1  0
  7  8  2  0
  7 29  1  0
  8  9  1  0
  8 10  1  0
  9 30  1  0
  9 31  1  0
 10 11  1  0
 11 12  3  0
 13 14  1  0
 13 32  1  0
 14 15  2  0
 14 16  1  0
 16 17  1  0
 16 33  1  0
 16 34  1  0
 17 23  1  0
 17 18  2  0
 18 19  1  0
 18 35  1  0
 19 20  1  0
 19 21  2  0
 21 22  1  0
 21 36  1  0
 22 23  2  0
 22 37  1  0
 23 38  1  0
M  END
$$$$
