lig_18659-1
     RDKit          3D

 50 51  0  0  0  0  0  0  0  0999 V2000
   25.3050   12.1340   28.3530 C   0  0  0  0  0  0  0  0  0  0  0  0
   25.3260   12.3480   29.7610 O   0  0  0  0  0  0  0  0  0  0  0  0
   24.0340   12.4870   30.3520 C   0  0  0  0  0  0  0  0  0  0  0  0
   23.3140   11.1390   30.5400 C   0  0  0  0  0  0  0  0  0  0  0  0
   22.1420   11.3640   31.3240 O   0  0  0  0  0  0  0  0  0  0  0  0
   21.3620   10.2950   31.7280 C   0  0  0  0  0  0  0  0  0  0  0  0
   21.7290    9.0550   31.3050 N   0  0  0  0  0  0  0  0  0  0  0  0
   20.9670    8.0090   31.6650 C   0  0  0  0  0  0  0  0  0  0  0  0
   19.8500    8.1320   32.4810 C   0  0  0  0  0  0  0  0  0  0  0  0
   19.4780    9.3940   32.9060 C   0  0  0  0  0  0  0  0  0  0  0  0
   18.3320    9.4550   33.6890 N   0  0  0  0  0  0  0  0  0  0  0  0
   20.2340   10.5140   32.5250 C   0  0  0  0  0  0  0  0  0  0  0  0
   19.8860   11.8780   32.9070 C   0  0  0  0  0  0  0  0  0  0  0  0
   19.6190   12.9650   33.2020 N   0  0  0  0  0  0  0  0  0  0  0  0
   21.4410    6.8350   31.1130 N   0  0  0  0  0  0  0  0  0  0  0  0
   20.8680    5.6310   31.0120 C   0  0  0  0  0  0  0  0  0  0  0  0
   19.7430    5.3540   31.4250 O   0  0  0  0  0  0  0  0  0  0  0  0
   21.6640    4.5750   30.2540 C   0  0  0  0  0  0  0  0  0  0  0  0
   23.0300    4.2830   30.8690 C   0  0  0  0  0  0  0  0  0  0  0  0
   24.1300    5.1090   30.5870 C   0  0  0  0  0  0  0  0  0  0  0  0
   23.9130    6.2050   29.7700 O   0  0  0  0  0  0  0  0  0  0  0  0
   24.9450    7.1750   29.6060 C   0  0  0  0  0  0  0  0  0  0  0  0
   25.3740    4.7860   31.1460 C   0  0  0  0  0  0  0  0  0  0  0  0
   25.5060    3.6910   32.0010 C   0  0  0  0  0  0  0  0  0  0  0  0
   24.4140    2.8780   32.2950 C   0  0  0  0  0  0  0  0  0  0  0  0
   23.1740    3.1800   31.7180 C   0  0  0  0  0  0  0  0  0  0  0  0
   24.6370    1.8270   33.1600 O   0  0  0  0  0  0  0  0  0  0  0  0
   23.7200    0.7360   33.1700 C   0  0  0  0  0  0  0  0  0  0  0  0
   26.3280   12.0660   27.9820 H   0  0  0  0  0  0  0  0  0  0  0  0
   24.7970   11.2070   28.0860 H   0  0  0  0  0  0  0  0  0  0  0  0
   24.8190   12.9600   27.8310 H   0  0  0  0  0  0  0  0  0  0  0  0
   24.1840   12.9410   31.3310 H   0  0  0  0  0  0  0  0  0  0  0  0
   23.4110   13.1870   29.7910 H   0  0  0  0  0  0  0  0  0  0  0  0
   23.0450   10.7040   29.5760 H   0  0  0  0  0  0  0  0  0  0  0  0
   23.9830   10.4390   31.0460 H   0  0  0  0  0  0  0  0  0  0  0  0
   19.2660    7.2740   32.7690 H   0  0  0  0  0  0  0  0  0  0  0  0
   17.8700    8.5990   33.9830 H   0  0  0  0  0  0  0  0  0  0  0  0
   17.9380   10.3540   33.9550 H   0  0  0  0  0  0  0  0  0  0  0  0
   22.3550    6.9470   30.7000 H   0  0  0  0  0  0  0  0  0  0  0  0
   21.0890    3.6570   30.1680 H   0  0  0  0  0  0  0  0  0  0  0  0
   21.7920    4.9570   29.2450 H   0  0  0  0  0  0  0  0  0  0  0  0
   25.8240    6.7520   29.1170 H   0  0  0  0  0  0  0  0  0  0  0  0
   25.2400    7.6160   30.5590 H   0  0  0  0  0  0  0  0  0  0  0  0
   24.5800    7.9840   28.9740 H   0  0  0  0  0  0  0  0  0  0  0  0
   26.2500    5.3810   30.9350 H   0  0  0  0  0  0  0  0  0  0  0  0
   26.4650    3.4600   32.4410 H   0  0  0  0  0  0  0  0  0  0  0  0
   22.3170    2.5590   31.9240 H   0  0  0  0  0  0  0  0  0  0  0  0
   24.0870   -0.0320   33.8520 H   0  0  0  0  0  0  0  0  0  0  0  0
   22.7270    1.0220   33.5160 H   0  0  0  0  0  0  0  0  0  0  0  0
   23.6320    0.2780   32.1860 H   0  0  0  0  0  0  0  0  0  0  0  0
  1  2  1  0
  1 29  1  0
  1 30  1  0
  1 31  1  0
  2  3  1  0
  3  4  1  0
  3 32  1  0
  3 33  1  0
  4  5  1  0
  4 34  1  0
  4 35  1  0
  5  6  1  0
  6 12  2  0
  6  7  1  0
  7  8  2  0
  8  9  1  0
  8 15  1  0
  9 10  2  0
  9 36  1  0
 10 11  1  0
 10 12  1  0
 11 37  1  0
 11 38  1  0
 12 13  1  0
 13 14  3  0
 15 16  1  0
 15 39  1  0
 16 17  2  0
 16 18  1  0
 18 19  1  0
 18 40  1  0
 18 41  1  0
 19 26  1  0
 19 20  2  0
 20 21  1  0
 20 23  1  0
 21 22  1  0
 22 42  1  0
 22 43  1  0
 22 44  1  0
 23 24  2  0
 23 45  1  0
 24 25  1  0
 24 46  1  0
 25 26  2  0
 25 27  1  0
 26 47  1  0
 27 28  1  0
 28 48  1  0
 28 49  1  0
 28 50  1  0
M  END
$$$$
