@<TRIPOS>MOLECULE
lig_18658-1
 47 48 0 0 0
SMALL
GASTEIGER

@<TRIPOS>ATOM
      1 O          24.2850   12.3290   28.3280 O.3     1  LIG1       -0.3917
      2 C          23.5040   12.4810   29.5030 C.3     1  LIG1        0.0783
      3 C          22.9870   11.1260   30.0090 C.3     1  LIG1        0.1142
      4 O          22.1130   11.3520   31.1180 O.3     1  LIG1       -0.4731
      5 C          21.3840   10.2940   31.6330 C.ar    1  LIG1        0.2362
      6 N          21.7290    9.0440   31.2230 N.ar    1  LIG1       -0.1966
      7 C          20.9900    8.0070   31.6470 C.ar    1  LIG1        0.1305
      8 C          19.9090    8.1490   32.5070 C.ar    1  LIG1        0.0007
      9 C          19.5590    9.4230   32.9200 C.ar    1  LIG1        0.0506
     10 N          18.4400    9.5050   33.7390 N.pl3   1  LIG1       -0.3567
     11 C          20.3030   10.5320   32.4890 C.ar    1  LIG1        0.1337
     12 C          19.9760   11.9040   32.8620 C.1     1  LIG1        0.1064
     13 N          19.7240   12.9960   33.1510 N.1     1  LIG1       -0.1906
     14 N          21.4470    6.8220   31.1060 N.am    1  LIG1       -0.2700
     15 C          20.8620    5.6230   31.0280 C.2     1  LIG1        0.2227
     16 O          19.7370    5.3650   31.4500 O.2     1  LIG1       -0.2751
     17 C          21.6460    4.5490   30.2820 C.3     1  LIG1        0.0530
     18 C          23.0170    4.2600   30.8880 C.ar    1  LIG1        0.0065
     19 C          24.1160    5.0840   30.5960 C.ar    1  LIG1        0.1239
     20 O          23.8950    6.1740   29.7720 O.3     1  LIG1       -0.4948
     21 C          24.9290    7.1390   29.5900 C.3     1  LIG1        0.0788
     22 C          25.3630    4.7660   31.1520 C.ar    1  LIG1       -0.0162
     23 C          25.5000    3.6730   32.0090 C.ar    1  LIG1       -0.0165
     24 C          24.4120    2.8580   32.3080 C.ar    1  LIG1        0.1206
     25 C          23.1690    3.1580   31.7360 C.ar    1  LIG1       -0.0129
     26 O          24.6400    1.8060   33.1700 O.3     1  LIG1       -0.4951
     27 C          23.7220    0.7160   33.1860 C.3     1  LIG1        0.0788
     28 H          23.6920   12.1650   27.5700 H       1  LIG1        0.2095
     29 H          24.1050   12.9600   30.2770 H       1  LIG1        0.0591
     30 H          22.6670   13.1500   29.2940 H       1  LIG1        0.0591
     31 H          22.4490   10.6180   29.2050 H       1  LIG1        0.0720
     32 H          23.8210   10.4850   30.3030 H       1  LIG1        0.0720
     33 H          19.3380    7.2970   32.8370 H       1  LIG1        0.0671
     34 H          17.9520    8.6580   34.0160 H       1  LIG1        0.1424
     35 H          18.0430   10.4110   33.9760 H       1  LIG1        0.1424
     36 H          22.3580    6.9200   30.6830 H       1  LIG1        0.1562
     37 H          21.0660    3.6320   30.2170 H       1  LIG1        0.0408
     38 H          21.7670    4.9120   29.2660 H       1  LIG1        0.0408
     39 H          25.8010    6.7080   29.0960 H       1  LIG1        0.0660
     40 H          24.5600    7.9440   28.9550 H       1  LIG1        0.0660
     41 H          25.2350    7.5870   30.5370 H       1  LIG1        0.0660
     42 H          26.2360    5.3620   30.9360 H       1  LIG1        0.0655
     43 H          26.4620    3.4450   32.4440 H       1  LIG1        0.0655
     44 H          22.3140    2.5340   31.9470 H       1  LIG1        0.0658
     45 H          24.0960   -0.0560   33.8590 H       1  LIG1        0.0660
     46 H          22.7350    1.0020   33.5460 H       1  LIG1        0.0660
     47 H          23.6200    0.2630   32.2000 H       1  LIG1        0.0660
@<TRIPOS>BOND
     1     1     2    1
     2     1    28    1
     3     2     3    1
     4     2    29    1
     5     2    30    1
     6     3     4    1
     7     3    31    1
     8     3    32    1
     9     4     5    1
    10     5    11   ar
    11     5     6   ar
    12     6     7   ar
    13     7     8   ar
    14     7    14    1
    15     8     9   ar
    16     8    33    1
    17     9    10    1
    18     9    11   ar
    19    10    34    1
    20    10    35    1
    21    11    12    1
    22    12    13    3
    23    14    15   am
    24    14    36    1
    25    15    16    2
    26    15    17    1
    27    17    18    1
    28    17    37    1
    29    17    38    1
    30    18    25   ar
    31    18    19   ar
    32    19    20    1
    33    19    22   ar
    34    20    21    1
    35    21    39    1
    36    21    40    1
    37    21    41    1
    38    22    23   ar
    39    22    42    1
    40    23    24   ar
    41    23    43    1
    42    24    25   ar
    43    24    26    1
    44    25    44    1
    45    26    27    1
    46    27    45    1
    47    27    46    1
    48    27    47    1
