@<TRIPOS>MOLECULE
lig_18626-1
 38 39 0 0 0
SMALL
GASTEIGER

@<TRIPOS>ATOM
      1 C          23.9630   12.4500   30.2900 C.3     1  LIG1       -0.0306
      2 C          23.2570   11.1110   30.5190 C.3     1  LIG1        0.0884
      3 O          22.1170   11.3550   31.3380 O.3     1  LIG1       -0.4757
      4 C          21.3340   10.2930   31.7570 C.ar    1  LIG1        0.2362
      5 N          21.7030    9.0460   31.3550 N.ar    1  LIG1       -0.1966
      6 C          20.9400    8.0080   31.7250 C.ar    1  LIG1        0.1305
      7 C          19.8170    8.1340   32.5270 C.ar    1  LIG1        0.0007
      8 C          19.4420    9.4020   32.9320 C.ar    1  LIG1        0.0506
      9 N          18.2880    9.4650   33.7020 N.pl3   1  LIG1       -0.3567
     10 C          20.2000   10.5200   32.5450 C.ar    1  LIG1        0.1337
     11 C          19.8480   11.8870   32.9080 C.1     1  LIG1        0.1064
     12 N          19.5760   12.9770   33.1890 N.1     1  LIG1       -0.1906
     13 N          21.4300    6.8390   31.1870 N.am    1  LIG1       -0.2700
     14 C          20.8470    5.6460   31.0340 C.2     1  LIG1        0.2226
     15 O          19.7110    5.3700   31.4140 O.2     1  LIG1       -0.2751
     16 C          21.6400    4.6100   30.2450 C.3     1  LIG1        0.0495
     17 C          23.0890    4.4690   30.6920 C.ar    1  LIG1       -0.0372
     18 C          23.4120    3.6310   31.7620 C.ar    1  LIG1       -0.0397
     19 C          24.7310    3.5230   32.1960 C.ar    1  LIG1        0.0412
     20 CL         25.1130    2.5200   33.5450 Cl      1  LIG1       -0.0835
     21 C          25.7380    4.2390   31.5500 C.ar    1  LIG1       -0.0434
     22 C          25.4250    5.0710   30.4730 C.ar    1  LIG1       -0.0601
     23 C          24.1020    5.1880   30.0460 C.ar    1  LIG1       -0.0580
     24 H          24.8480   12.3250   29.6660 H       1  LIG1        0.0262
     25 H          23.3000   13.1560   29.7920 H       1  LIG1        0.0262
     26 H          24.2760   12.8940   31.2350 H       1  LIG1        0.0262
     27 H          22.9540   10.6740   29.5650 H       1  LIG1        0.0694
     28 H          23.9410   10.4120   31.0050 H       1  LIG1        0.0694
     29 H          19.2330    7.2770   32.8170 H       1  LIG1        0.0671
     30 H          17.8290    8.6090   34.0010 H       1  LIG1        0.1424
     31 H          17.8920   10.3660   33.9620 H       1  LIG1        0.1424
     32 H          22.3540    6.9750   30.8230 H       1  LIG1        0.1562
     33 H          21.1450    3.6420   30.2910 H       1  LIG1        0.0407
     34 H          21.5980    4.9430   29.2150 H       1  LIG1        0.0407
     35 H          22.6440    3.0570   32.2590 H       1  LIG1        0.0635
     36 H          26.7580    4.1510   31.8920 H       1  LIG1        0.0632
     37 H          26.2070    5.6290   29.9750 H       1  LIG1        0.0618
     38 H          23.8710    5.8360   29.2120 H       1  LIG1        0.0620
@<TRIPOS>BOND
     1     1     2    1
     2     1    24    1
     3     1    25    1
     4     1    26    1
     5     2     3    1
     6     2    27    1
     7     2    28    1
     8     3     4    1
     9     4    10   ar
    10     4     5   ar
    11     5     6   ar
    12     6     7   ar
    13     6    13    1
    14     7     8   ar
    15     7    29    1
    16     8     9    1
    17     8    10   ar
    18     9    30    1
    19     9    31    1
    20    10    11    1
    21    11    12    3
    22    13    14   am
    23    13    32    1
    24    14    15    2
    25    14    16    1
    26    16    17    1
    27    16    33    1
    28    16    34    1
    29    17    23   ar
    30    17    18   ar
    31    18    19   ar
    32    18    35    1
    33    19    20    1
    34    19    21   ar
    35    21    22   ar
    36    21    36    1
    37    22    23   ar
    38    22    37    1
    39    23    38    1
