@<TRIPOS>MOLECULE
lig_18634-1
 46 47 0 0 0
SMALL
GASTEIGER

@<TRIPOS>ATOM
      1 C          24.0730   12.4030   30.2320 C.3     1  LIG1       -0.0306
      2 C          23.3270   11.0820   30.4340 C.3     1  LIG1        0.0884
      3 O          22.2090   11.3390   31.2790 O.3     1  LIG1       -0.4757
      4 C          21.4080   10.2890   31.6940 C.ar    1  LIG1        0.2362
      5 N          21.7460    9.0390   31.2730 N.ar    1  LIG1       -0.1966
      6 C          20.9690    8.0100   31.6440 C.ar    1  LIG1        0.1305
      7 C          19.8630    8.1540   32.4700 C.ar    1  LIG1        0.0007
      8 C          19.5190    9.4250   32.8940 C.ar    1  LIG1        0.0506
      9 N          18.3840    9.5060   33.6910 N.pl3   1  LIG1       -0.3567
     10 C          20.2910   10.5310   32.5020 C.ar    1  LIG1        0.1337
     11 C          19.9690   11.9010   32.8840 C.1     1  LIG1        0.1064
     12 N          19.7200   12.9910   33.1810 N.1     1  LIG1       -0.1906
     13 N          21.4260    6.8280   31.0990 N.am    1  LIG1       -0.2700
     14 C          20.8490    5.6260   31.0240 C.2     1  LIG1        0.2227
     15 O          19.7220    5.3640   31.4400 O.2     1  LIG1       -0.2751
     16 C          21.6450    4.5490   30.2960 C.3     1  LIG1        0.0530
     17 C          23.0490    4.3420   30.8590 C.ar    1  LIG1        0.0065
     18 C          24.1090    5.1750   30.4710 C.ar    1  LIG1        0.1239
     19 O          23.8250    6.2110   29.5990 O.3     1  LIG1       -0.4948
     20 C          24.7820    7.2540   29.4260 C.3     1  LIG1        0.0788
     21 C          25.3880    4.9250   30.9870 C.ar    1  LIG1       -0.0162
     22 C          25.5910    3.9090   31.9220 C.ar    1  LIG1       -0.0165
     23 C          24.5220    3.1090   32.3470 C.ar    1  LIG1        0.1206
     24 C          23.2660    3.3180   31.7860 C.ar    1  LIG1       -0.0129
     25 O          24.6160    2.1140   33.2980 O.3     1  LIG1       -0.4951
     26 C          25.8230    1.9830   34.0420 C.3     1  LIG1        0.0788
     27 H          24.9320   12.2710   29.5740 H       1  LIG1        0.0262
     28 H          23.4200   13.1520   29.7830 H       1  LIG1        0.0262
     29 H          24.4310   12.7990   31.1830 H       1  LIG1        0.0262
     30 H          22.9920   10.6830   29.4740 H       1  LIG1        0.0694
     31 H          23.9970   10.3470   30.8880 H       1  LIG1        0.0694
     32 H          19.2670    7.3080   32.7670 H       1  LIG1        0.0671
     33 H          18.0000   10.4110   33.9500 H       1  LIG1        0.1424
     34 H          17.9030    8.6580   33.9750 H       1  LIG1        0.1424
     35 H          22.3340    6.9320   30.6730 H       1  LIG1        0.1562
     36 H          21.0990    3.6090   30.2960 H       1  LIG1        0.0408
     37 H          21.7110    4.8750   29.2640 H       1  LIG1        0.0408
     38 H          25.6790    6.8960   28.9180 H       1  LIG1        0.0660
     39 H          24.3490    8.0400   28.8070 H       1  LIG1        0.0660
     40 H          25.0650    7.7070   30.3780 H       1  LIG1        0.0660
     41 H          26.2330    5.5260   30.6890 H       1  LIG1        0.0655
     42 H          26.5850    3.7610   32.3160 H       1  LIG1        0.0655
     43 H          22.4550    2.6720   32.0910 H       1  LIG1        0.0658
     44 H          26.6590    1.6970   33.4040 H       1  LIG1        0.0660
     45 H          26.0720    2.9040   34.5710 H       1  LIG1        0.0660
     46 H          25.7000    1.2000   34.7910 H       1  LIG1        0.0660
@<TRIPOS>BOND
     1     1     2    1
     2     1    27    1
     3     1    28    1
     4     1    29    1
     5     2     3    1
     6     2    30    1
     7     2    31    1
     8     3     4    1
     9     4    10   ar
    10     4     5   ar
    11     5     6   ar
    12     6     7   ar
    13     6    13    1
    14     7     8   ar
    15     7    32    1
    16     8     9    1
    17     8    10   ar
    18     9    33    1
    19     9    34    1
    20    10    11    1
    21    11    12    3
    22    13    14   am
    23    13    35    1
    24    14    15    2
    25    14    16    1
    26    16    17    1
    27    16    36    1
    28    16    37    1
    29    17    24   ar
    30    17    18   ar
    31    18    19    1
    32    18    21   ar
    33    19    20    1
    34    20    38    1
    35    20    39    1
    36    20    40    1
    37    21    22   ar
    38    21    41    1
    39    22    23   ar
    40    22    42    1
    41    23    24   ar
    42    23    25    1
    43    24    43    1
    44    25    26    1
    45    26    44    1
    46    26    45    1
    47    26    46    1
