@<TRIPOS>MOLECULE
lig_18659-1
 50 51 0 0 0
SMALL
GASTEIGER

@<TRIPOS>ATOM
      1 C          25.3050   12.1340   28.3530 C.3     1  LIG1        0.0366
      2 O          25.3260   12.3480   29.7610 O.3     1  LIG1       -0.3796
      3 C          24.0340   12.4870   30.3520 C.3     1  LIG1        0.0814
      4 C          23.3140   11.1390   30.5400 C.3     1  LIG1        0.1145
      5 O          22.1420   11.3640   31.3240 O.3     1  LIG1       -0.4731
      6 C          21.3620   10.2950   31.7280 C.ar    1  LIG1        0.2362
      7 N          21.7290    9.0550   31.3050 N.ar    1  LIG1       -0.1966
      8 C          20.9670    8.0090   31.6650 C.ar    1  LIG1        0.1305
      9 C          19.8500    8.1320   32.4810 C.ar    1  LIG1        0.0007
     10 C          19.4780    9.3940   32.9060 C.ar    1  LIG1        0.0506
     11 N          18.3320    9.4550   33.6890 N.pl3   1  LIG1       -0.3567
     12 C          20.2340   10.5140   32.5250 C.ar    1  LIG1        0.1337
     13 C          19.8860   11.8780   32.9070 C.1     1  LIG1        0.1064
     14 N          19.6190   12.9650   33.2020 N.1     1  LIG1       -0.1906
     15 N          21.4410    6.8350   31.1130 N.am    1  LIG1       -0.2700
     16 C          20.8680    5.6310   31.0120 C.2     1  LIG1        0.2227
     17 O          19.7430    5.3540   31.4250 O.2     1  LIG1       -0.2751
     18 C          21.6640    4.5750   30.2540 C.3     1  LIG1        0.0530
     19 C          23.0300    4.2830   30.8690 C.ar    1  LIG1        0.0065
     20 C          24.1300    5.1090   30.5870 C.ar    1  LIG1        0.1239
     21 O          23.9130    6.2050   29.7700 O.3     1  LIG1       -0.4948
     22 C          24.9450    7.1750   29.6060 C.3     1  LIG1        0.0788
     23 C          25.3740    4.7860   31.1460 C.ar    1  LIG1       -0.0162
     24 C          25.5060    3.6910   32.0010 C.ar    1  LIG1       -0.0165
     25 C          24.4140    2.8780   32.2950 C.ar    1  LIG1        0.1206
     26 C          23.1740    3.1800   31.7180 C.ar    1  LIG1       -0.0129
     27 O          24.6370    1.8270   33.1600 O.3     1  LIG1       -0.4951
     28 C          23.7200    0.7360   33.1700 C.3     1  LIG1        0.0788
     29 H          26.3280   12.0660   27.9820 H       1  LIG1        0.0524
     30 H          24.7970   11.2070   28.0860 H       1  LIG1        0.0524
     31 H          24.8190   12.9600   27.8310 H       1  LIG1        0.0524
     32 H          24.1840   12.9410   31.3310 H       1  LIG1        0.0593
     33 H          23.4110   13.1870   29.7910 H       1  LIG1        0.0593
     34 H          23.0450   10.7040   29.5760 H       1  LIG1        0.0720
     35 H          23.9830   10.4390   31.0460 H       1  LIG1        0.0720
     36 H          19.2660    7.2740   32.7690 H       1  LIG1        0.0671
     37 H          17.8700    8.5990   33.9830 H       1  LIG1        0.1424
     38 H          17.9380   10.3540   33.9550 H       1  LIG1        0.1424
     39 H          22.3550    6.9470   30.7000 H       1  LIG1        0.1562
     40 H          21.0890    3.6570   30.1680 H       1  LIG1        0.0408
     41 H          21.7920    4.9570   29.2450 H       1  LIG1        0.0408
     42 H          25.8240    6.7520   29.1170 H       1  LIG1        0.0660
     43 H          25.2400    7.6160   30.5590 H       1  LIG1        0.0660
     44 H          24.5800    7.9840   28.9740 H       1  LIG1        0.0660
     45 H          26.2500    5.3810   30.9350 H       1  LIG1        0.0655
     46 H          26.4650    3.4600   32.4410 H       1  LIG1        0.0655
     47 H          22.3170    2.5590   31.9240 H       1  LIG1        0.0658
     48 H          24.0870   -0.0320   33.8520 H       1  LIG1        0.0660
     49 H          22.7270    1.0220   33.5160 H       1  LIG1        0.0660
     50 H          23.6320    0.2780   32.1860 H       1  LIG1        0.0660
@<TRIPOS>BOND
     1     1     2    1
     2     1    29    1
     3     1    30    1
     4     1    31    1
     5     2     3    1
     6     3     4    1
     7     3    32    1
     8     3    33    1
     9     4     5    1
    10     4    34    1
    11     4    35    1
    12     5     6    1
    13     6    12   ar
    14     6     7   ar
    15     7     8   ar
    16     8     9   ar
    17     8    15    1
    18     9    10   ar
    19     9    36    1
    20    10    11    1
    21    10    12   ar
    22    11    37    1
    23    11    38    1
    24    12    13    1
    25    13    14    3
    26    15    16   am
    27    15    39    1
    28    16    17    2
    29    16    18    1
    30    18    19    1
    31    18    40    1
    32    18    41    1
    33    19    26   ar
    34    19    20   ar
    35    20    21    1
    36    20    23   ar
    37    21    22    1
    38    22    42    1
    39    22    43    1
    40    22    44    1
    41    23    24   ar
    42    23    45    1
    43    24    25   ar
    44    24    46    1
    45    25    26   ar
    46    25    27    1
    47    26    47    1
    48    27    28    1
    49    28    48    1
    50    28    49    1
    51    28    50    1
