@<TRIPOS>MOLECULE
lig_17124-1
 46 47 0 0 0
SMALL
GASTEIGER

@<TRIPOS>ATOM
      1 C          24.0820   12.3920   30.2420 C.3     1  LIG1       -0.0306
      2 C          23.3500   11.0660   30.4630 C.3     1  LIG1        0.0884
      3 O          22.2120   11.3270   31.2790 O.3     1  LIG1       -0.4757
      4 C          21.4130   10.2770   31.6980 C.ar    1  LIG1        0.2362
      5 N          21.7570    9.0270   31.2850 N.ar    1  LIG1       -0.1966
      6 C          20.9810    7.9970   31.6570 C.ar    1  LIG1        0.1305
      7 C          19.8710    8.1420   32.4770 C.ar    1  LIG1        0.0007
      8 C          19.5220    9.4140   32.8940 C.ar    1  LIG1        0.0506
      9 N          18.3830    9.4960   33.6860 N.pl3   1  LIG1       -0.3567
     10 C          20.2920   10.5200   32.5000 C.ar    1  LIG1        0.1337
     11 C          19.9660   11.8900   32.8770 C.1     1  LIG1        0.1064
     12 N          19.7130   12.9810   33.1710 N.1     1  LIG1       -0.1906
     13 N          21.4440    6.8150   31.1150 N.am    1  LIG1       -0.2700
     14 C          20.8640    5.6150   31.0310 C.2     1  LIG1        0.2227
     15 O          19.7400    5.3500   31.4510 O.2     1  LIG1       -0.2751
     16 C          21.6500    4.5470   30.2800 C.3     1  LIG1        0.0530
     17 C          23.0250    4.2590   30.8770 C.ar    1  LIG1        0.0065
     18 C          24.1220    5.0800   30.5740 C.ar    1  LIG1        0.1250
     19 O          23.8940    6.1760   29.7600 O.3     1  LIG1       -0.4948
     20 C          24.9260    7.1420   29.5740 C.3     1  LIG1        0.0788
     21 C          25.3760    4.7490   31.1030 C.ar    1  LIG1       -0.0022
     22 C          25.5280    3.6470   31.9430 C.ar    1  LIG1        0.0629
     23 BR         27.2650    3.2510   32.6230 Br      1  LIG1       -0.0464
     24 C          24.4330    2.8400   32.2700 C.ar    1  LIG1        0.1345
     25 C          23.1820    3.1560   31.7230 C.ar    1  LIG1       -0.0117
     26 O          24.6460    1.7800   33.1310 O.3     1  LIG1       -0.4940
     27 C          23.7080    0.7070   33.1600 C.3     1  LIG1        0.0788
     28 H          24.9660   12.2530   29.6210 H       1  LIG1        0.0262
     29 H          23.4330   13.1120   29.7440 H       1  LIG1        0.0262
     30 H          24.3970   12.8270   31.1900 H       1  LIG1        0.0262
     31 H          23.0410   10.6380   29.5060 H       1  LIG1        0.0694
     32 H          24.0190   10.3520   30.9490 H       1  LIG1        0.0694
     33 H          19.2760    7.2950   32.7750 H       1  LIG1        0.0671
     34 H          17.9030    8.6480   33.9730 H       1  LIG1        0.1424
     35 H          17.9980   10.4020   33.9430 H       1  LIG1        0.1424
     36 H          22.3520    6.9230   30.6910 H       1  LIG1        0.1562
     37 H          21.0720    3.6290   30.2150 H       1  LIG1        0.0408
     38 H          21.7630    4.9130   29.2650 H       1  LIG1        0.0408
     39 H          24.5480    7.9550   28.9540 H       1  LIG1        0.0660
     40 H          25.2470    7.5790   30.5210 H       1  LIG1        0.0660
     41 H          25.7900    6.7170   29.0620 H       1  LIG1        0.0660
     42 H          26.2490    5.3380   30.8750 H       1  LIG1        0.0666
     43 H          22.3240    2.5420   31.9460 H       1  LIG1        0.0658
     44 H          24.0780   -0.0690   33.8310 H       1  LIG1        0.0660
     45 H          22.7310    1.0100   33.5310 H       1  LIG1        0.0660
     46 H          23.5880    0.2530   32.1770 H       1  LIG1        0.0660
@<TRIPOS>BOND
     1     1     2    1
     2     1    28    1
     3     1    29    1
     4     1    30    1
     5     2     3    1
     6     2    31    1
     7     2    32    1
     8     3     4    1
     9     4    10   ar
    10     4     5   ar
    11     5     6   ar
    12     6     7   ar
    13     6    13    1
    14     7     8   ar
    15     7    33    1
    16     8     9    1
    17     8    10   ar
    18     9    34    1
    19     9    35    1
    20    10    11    1
    21    11    12    3
    22    13    14   am
    23    13    36    1
    24    14    15    2
    25    14    16    1
    26    16    17    1
    27    16    37    1
    28    16    38    1
    29    17    25   ar
    30    17    18   ar
    31    18    19    1
    32    18    21   ar
    33    19    20    1
    34    20    39    1
    35    20    40    1
    36    20    41    1
    37    21    22   ar
    38    21    42    1
    39    22    23    1
    40    22    24   ar
    41    24    25   ar
    42    24    26    1
    43    25    43    1
    44    26    27    1
    45    27    44    1
    46    27    45    1
    47    27    46    1
