lig_18636-1
     RDKit          3D

 38 39  0  0  0  0  0  0  0  0999 V2000
   23.9800   12.4590   30.2880 C   0  0  0  0  0  0  0  0  0  0  0  0
   23.2750   11.1170   30.5000 C   0  0  0  0  0  0  0  0  0  0  0  0
   22.1370   11.3490   31.3270 O   0  0  0  0  0  0  0  0  0  0  0  0
   21.3560   10.2810   31.7350 C   0  0  0  0  0  0  0  0  0  0  0  0
   21.7260    9.0410   31.3140 N   0  0  0  0  0  0  0  0  0  0  0  0
   20.9680    7.9950   31.6700 C   0  0  0  0  0  0  0  0  0  0  0  0
   19.8450    8.1070   32.4770 C   0  0  0  0  0  0  0  0  0  0  0  0
   19.4690    9.3700   32.9030 C   0  0  0  0  0  0  0  0  0  0  0  0
   18.3180    9.4270   33.6810 N   0  0  0  0  0  0  0  0  0  0  0  0
   20.2250   10.4940   32.5300 C   0  0  0  0  0  0  0  0  0  0  0  0
   19.8740   11.8560   32.9150 C   0  0  0  0  0  0  0  0  0  0  0  0
   19.6040   12.9410   33.2140 N   0  0  0  0  0  0  0  0  0  0  0  0
   21.4730    6.8390   31.1130 N   0  0  0  0  0  0  0  0  0  0  0  0
   20.9420    5.6180   31.0120 C   0  0  0  0  0  0  0  0  0  0  0  0
   19.8420    5.2960   31.4540 O   0  0  0  0  0  0  0  0  0  0  0  0
   21.7560    4.6030   30.2160 C   0  0  0  0  0  0  0  0  0  0  0  0
   23.0780    4.2280   30.8820 C   0  0  0  0  0  0  0  0  0  0  0  0
   23.1370    3.3170   31.9520 C   0  0  0  0  0  0  0  0  0  0  0  0
   21.5740    2.4700   32.6410 Br  0  0  0  0  0  0  0  0  0  0  0  0
   24.3630    3.0180   32.5460 C   0  0  0  0  0  0  0  0  0  0  0  0
   25.5370    3.6080   32.0770 C   0  0  0  0  0  0  0  0  0  0  0  0
   25.4840    4.5100   31.0170 C   0  0  0  0  0  0  0  0  0  0  0  0
   27.0820    5.3240   30.3860 Br  0  0  0  0  0  0  0  0  0  0  0  0
   24.2610    4.8200   30.4250 C   0  0  0  0  0  0  0  0  0  0  0  0
   24.8610   12.3430   29.6580 H   0  0  0  0  0  0  0  0  0  0  0  0
   23.3130   13.1720   29.8030 H   0  0  0  0  0  0  0  0  0  0  0  0
   24.2960   12.8900   31.2370 H   0  0  0  0  0  0  0  0  0  0  0  0
   22.9680   10.6930   29.5420 H   0  0  0  0  0  0  0  0  0  0  0  0
   23.9610   10.4110   30.9740 H   0  0  0  0  0  0  0  0  0  0  0  0
   19.2630    7.2450   32.7570 H   0  0  0  0  0  0  0  0  0  0  0  0
   17.8620    8.5710   33.9830 H   0  0  0  0  0  0  0  0  0  0  0  0
   17.9270   10.3270   33.9510 H   0  0  0  0  0  0  0  0  0  0  0  0
   22.3650    7.0190   30.6860 H   0  0  0  0  0  0  0  0  0  0  0  0
   21.1610    3.7070   30.0530 H   0  0  0  0  0  0  0  0  0  0  0  0
   21.9270    5.0300   29.2320 H   0  0  0  0  0  0  0  0  0  0  0  0
   24.3990    2.3220   33.3730 H   0  0  0  0  0  0  0  0  0  0  0  0
   26.4870    3.3750   32.5340 H   0  0  0  0  0  0  0  0  0  0  0  0
   24.2430    5.5410   29.6200 H   0  0  0  0  0  0  0  0  0  0  0  0
  1  2  1  0
  1 25  1  0
  1 26  1  0
  1 27  1  0
  2  3  1  0
  2 28  1  0
  2 29  1  0
  3  4  1  0
  4 10  2  0
  4  5  1  0
  5  6  2  0
  6  7  1  0
  6 13  1  0
  7  8  2  0
  7 30  1  0
  8  9  1  0
  8 10  1  0
  9 31  1  0
  9 32  1  0
 10 11  1  0
 11 12  3  0
 13 14  1  0
 13 33  1  0
 14 15  2  0
 14 16  1  0
 16 17  1  0
 16 34  1  0
 16 35  1  0
 17 24  1  0
 17 18  2  0
 18 19  1  0
 18 20  1  0
 20 21  2  0
 20 36  1  0
 21 22  1  0
 21 37  1  0
 22 23  1  0
 22 24  2  0
 24 38  1  0
M  END
$$$$
