@<TRIPOS>MOLECULE
lig_18633-1
 42 43 0 0 0
SMALL
GASTEIGER

@<TRIPOS>ATOM
      1 C          24.0390   12.2180   30.2670 C.3     1  LIG1       -0.0306
      2 C          23.3040   10.9020   30.5330 C.3     1  LIG1        0.0884
      3 O          22.1560   11.1950   31.3260 O.3     1  LIG1       -0.4757
      4 C          21.3390   10.1630   31.7540 C.ar    1  LIG1        0.2362
      5 N          21.6820    8.8990   31.3840 N.ar    1  LIG1       -0.1966
      6 C          20.8870    7.8880   31.7600 C.ar    1  LIG1        0.1305
      7 C          19.7520    8.0620   32.5360 C.ar    1  LIG1        0.0007
      8 C          19.4080    9.3450   32.9170 C.ar    1  LIG1        0.0506
      9 N          18.2520    9.4490   33.6800 N.pl3   1  LIG1       -0.3567
     10 C          20.2030   10.4350   32.5260 C.ar    1  LIG1        0.1337
     11 C          19.8910   11.8150   32.8790 C.1     1  LIG1        0.1064
     12 N          19.6510   12.9140   33.1550 N.1     1  LIG1       -0.1906
     13 N          21.3750    6.6760   31.3200 N.am    1  LIG1       -0.2700
     14 C          20.7390    5.5160   31.1260 C.2     1  LIG1        0.2226
     15 O          19.5240    5.3830   31.2540 O.2     1  LIG1       -0.2751
     16 C          21.5740    4.2930   30.7140 C.3     1  LIG1        0.0495
     17 C          23.0750    4.5500   30.5850 C.ar    1  LIG1       -0.0384
     18 C          23.9620    4.0060   31.5180 C.ar    1  LIG1       -0.0547
     19 C          25.3280    4.2690   31.4150 C.ar    1  LIG1       -0.0197
     20 C          25.8300    5.0670   30.3880 C.ar    1  LIG1        0.1201
     21 C          24.9360    5.6030   29.4480 C.ar    1  LIG1       -0.0197
     22 C          23.5700    5.3480   29.5480 C.ar    1  LIG1       -0.0547
     23 O          27.1930    5.2760   30.3810 O.3     1  LIG1       -0.4951
     24 C          27.7620    6.0800   29.3510 C.3     1  LIG1        0.0788
     25 H          24.9290   12.0530   29.6610 H       1  LIG1        0.0262
     26 H          23.3960   12.9170   29.7320 H       1  LIG1        0.0262
     27 H          24.3450   12.6920   31.1990 H       1  LIG1        0.0262
     28 H          23.0080   10.4370   29.5900 H       1  LIG1        0.0694
     29 H          23.9670   10.2070   31.0550 H       1  LIG1        0.0694
     30 H          19.1470    7.2230   32.8380 H       1  LIG1        0.0671
     31 H          17.7770    8.6080   33.9940 H       1  LIG1        0.1424
     32 H          17.8830   10.3620   33.9350 H       1  LIG1        0.1424
     33 H          22.3610    6.7130   31.1320 H       1  LIG1        0.1562
     34 H          21.3860    3.5000   31.4380 H       1  LIG1        0.0407
     35 H          21.1950    3.9320   29.7620 H       1  LIG1        0.0407
     36 H          23.5980    3.3830   32.3230 H       1  LIG1        0.0622
     37 H          26.0140    3.8530   32.1380 H       1  LIG1        0.0654
     38 H          25.2870    6.2230   28.6360 H       1  LIG1        0.0654
     39 H          22.8920    5.7770   28.8220 H       1  LIG1        0.0622
     40 H          28.8350    6.1760   29.5200 H       1  LIG1        0.0660
     41 H          27.6210    5.6280   28.3680 H       1  LIG1        0.0660
     42 H          27.3420    7.0880   29.3410 H       1  LIG1        0.0660
@<TRIPOS>BOND
     1     1     2    1
     2     1    25    1
     3     1    26    1
     4     1    27    1
     5     2     3    1
     6     2    28    1
     7     2    29    1
     8     3     4    1
     9     4    10   ar
    10     4     5   ar
    11     5     6   ar
    12     6     7   ar
    13     6    13    1
    14     7     8   ar
    15     7    30    1
    16     8     9    1
    17     8    10   ar
    18     9    31    1
    19     9    32    1
    20    10    11    1
    21    11    12    3
    22    13    14   am
    23    13    33    1
    24    14    15    2
    25    14    16    1
    26    16    17    1
    27    16    34    1
    28    16    35    1
    29    17    22   ar
    30    17    18   ar
    31    18    19   ar
    32    18    36    1
    33    19    20   ar
    34    19    37    1
    35    20    21   ar
    36    20    23    1
    37    21    22   ar
    38    21    38    1
    39    22    39    1
    40    23    24    1
    41    24    40    1
    42    24    41    1
    43    24    42    1
