@<TRIPOS>MOLECULE
lig_18638-1
 52 53 0 0 0
SMALL
GASTEIGER

@<TRIPOS>ATOM
      1 C          24.0830   12.3870   30.2430 C.3     1  LIG1       -0.0306
      2 C          23.3510   11.0610   30.4630 C.3     1  LIG1        0.0884
      3 O          22.2130   11.3220   31.2790 O.3     1  LIG1       -0.4757
      4 C          21.4140   10.2720   31.6980 C.ar    1  LIG1        0.2362
      5 N          21.7580    9.0210   31.2860 N.ar    1  LIG1       -0.1966
      6 C          20.9830    7.9920   31.6590 C.ar    1  LIG1        0.1305
      7 C          19.8720    8.1370   32.4780 C.ar    1  LIG1        0.0007
      8 C          19.5220    9.4100   32.8930 C.ar    1  LIG1        0.0506
      9 N          18.3830    9.4920   33.6850 N.pl3   1  LIG1       -0.3567
     10 C          20.2930   10.5150   32.5000 C.ar    1  LIG1        0.1337
     11 C          19.9660   11.8860   32.8770 C.1     1  LIG1        0.1064
     12 N          19.7140   12.9770   33.1710 N.1     1  LIG1       -0.1906
     13 N          21.4470    6.8090   31.1180 N.am    1  LIG1       -0.2700
     14 C          20.8650    5.6100   31.0300 C.2     1  LIG1        0.2227
     15 O          19.7380    5.3480   31.4460 O.2     1  LIG1       -0.2751
     16 C          21.6490    4.5410   30.2810 C.3     1  LIG1        0.0530
     17 C          23.0100    4.2330   30.8980 C.ar    1  LIG1        0.0066
     18 C          24.1200    5.0420   30.6150 C.ar    1  LIG1        0.1257
     19 O          23.9160    6.1430   29.8020 O.3     1  LIG1       -0.4948
     20 C          24.9740    7.0760   29.5920 C.3     1  LIG1        0.0788
     21 C          25.3630    4.6930   31.1580 C.ar    1  LIG1        0.0087
     22 C          25.4890    3.5790   31.9950 C.ar    1  LIG1        0.1328
     23 S          27.1110    3.1590   32.6460 S.O2    1  LIG1       -0.0023
     24 O          28.0640    4.2090   32.2490 O.2     1  LIG1       -0.1695
     25 O          26.9780    2.8100   34.0690 O.2     1  LIG1       -0.1695
     26 C          27.5660    1.6310   31.7310 C.3     1  LIG1        0.0597
     27 C          24.3790    2.7780   32.2960 C.ar    1  LIG1        0.1453
     28 C          23.1420    3.1200   31.7350 C.ar    1  LIG1       -0.0109
     29 O          24.5590    1.6920   33.1310 O.3     1  LIG1       -0.4932
     30 C          23.5930    0.6440   33.1470 C.3     1  LIG1        0.0789
     31 H          24.9670   12.2480   29.6210 H       1  LIG1        0.0262
     32 H          23.4340   13.1080   29.7450 H       1  LIG1        0.0262
     33 H          24.3990   12.8220   31.1910 H       1  LIG1        0.0262
     34 H          23.0430   10.6330   29.5060 H       1  LIG1        0.0694
     35 H          24.0200   10.3470   30.9490 H       1  LIG1        0.0694
     36 H          19.2770    7.2900   32.7760 H       1  LIG1        0.0671
     37 H          17.9030    8.6440   33.9740 H       1  LIG1        0.1424
     38 H          17.9980   10.3980   33.9420 H       1  LIG1        0.1424
     39 H          22.3580    6.9170   30.6990 H       1  LIG1        0.1562
     40 H          21.0630    3.6300   30.2000 H       1  LIG1        0.0408
     41 H          21.7820    4.9130   29.2700 H       1  LIG1        0.0408
     42 H          24.6150    7.8880   28.9590 H       1  LIG1        0.0660
     43 H          25.3130    7.5220   30.5280 H       1  LIG1        0.0660
     44 H          25.8230    6.6180   29.0820 H       1  LIG1        0.0660
     45 H          26.2400    5.2810   30.9370 H       1  LIG1        0.0674
     46 H          27.5800    1.8410   30.6640 H       1  LIG1        0.0468
     47 H          28.5480    1.2980   32.0580 H       1  LIG1        0.0468
     48 H          26.8260    0.8610   31.9420 H       1  LIG1        0.0468
     49 H          22.2720    2.5150   31.9350 H       1  LIG1        0.0659
     50 H          23.4750    0.1970   32.1620 H       1  LIG1        0.0660
     51 H          22.6190    0.9690   33.5090 H       1  LIG1        0.0660
     52 H          23.9360   -0.1430   33.8180 H       1  LIG1        0.0660
@<TRIPOS>BOND
     1     1     2    1
     2     1    31    1
     3     1    32    1
     4     1    33    1
     5     2     3    1
     6     2    34    1
     7     2    35    1
     8     3     4    1
     9     4    10   ar
    10     4     5   ar
    11     5     6   ar
    12     6     7   ar
    13     6    13    1
    14     7     8   ar
    15     7    36    1
    16     8     9    1
    17     8    10   ar
    18     9    37    1
    19     9    38    1
    20    10    11    1
    21    11    12    3
    22    13    14   am
    23    13    39    1
    24    14    15    2
    25    14    16    1
    26    16    17    1
    27    16    40    1
    28    16    41    1
    29    17    28   ar
    30    17    18   ar
    31    18    19    1
    32    18    21   ar
    33    19    20    1
    34    20    42    1
    35    20    43    1
    36    20    44    1
    37    21    22   ar
    38    21    45    1
    39    22    23    1
    40    22    27   ar
    41    23    24    2
    42    23    25    2
    43    23    26    1
    44    26    46    1
    45    26    47    1
    46    26    48    1
    47    27    28   ar
    48    27    29    1
    49    28    49    1
    50    29    30    1
    51    30    50    1
    52    30    51    1
    53    30    52    1
