@<TRIPOS>MOLECULE
lig_18627-1
 38 39 0 0 0
SMALL
GASTEIGER

@<TRIPOS>ATOM
      1 C          24.0460   12.2310   30.2640 C.3     1  LIG1       -0.0306
      2 C          23.3140   10.9120   30.5250 C.3     1  LIG1        0.0884
      3 O          22.1660   11.2000   31.3190 O.3     1  LIG1       -0.4757
      4 C          21.3510   10.1660   31.7450 C.ar    1  LIG1        0.2362
      5 N          21.6960    8.9020   31.3720 N.ar    1  LIG1       -0.1966
      6 C          20.9000    7.8900   31.7480 C.ar    1  LIG1        0.1305
      7 C          19.7670    8.0630   32.5270 C.ar    1  LIG1        0.0007
      8 C          19.4230    9.3450   32.9110 C.ar    1  LIG1        0.0506
      9 N          18.2680    9.4490   33.6770 N.pl3   1  LIG1       -0.3567
     10 C          20.2170   10.4360   32.5200 C.ar    1  LIG1        0.1337
     11 C          19.9030   11.8150   32.8760 C.1     1  LIG1        0.1064
     12 N          19.6630   12.9130   33.1540 N.1     1  LIG1       -0.1906
     13 N          21.3890    6.6800   31.3020 N.am    1  LIG1       -0.2700
     14 C          20.7530    5.5180   31.1150 C.2     1  LIG1        0.2226
     15 O          19.5390    5.3840   31.2540 O.2     1  LIG1       -0.2751
     16 C          21.5780    4.2950   30.6930 C.3     1  LIG1        0.0495
     17 C          23.0900    4.5080   30.6430 C.ar    1  LIG1       -0.0385
     18 C          23.6660    5.3060   29.6460 C.ar    1  LIG1       -0.0567
     19 C          25.0460    5.5100   29.6200 C.ar    1  LIG1       -0.0431
     20 C          25.8560    4.9160   30.5870 C.ar    1  LIG1        0.0410
     21 CL         27.5600    5.1730   30.5670 Cl      1  LIG1       -0.0835
     22 C          25.2880    4.1160   31.5780 C.ar    1  LIG1       -0.0431
     23 C          23.9090    3.9120   31.6080 C.ar    1  LIG1       -0.0567
     24 H          24.9360   12.0710   29.6580 H       1  LIG1        0.0262
     25 H          23.4010   12.9310   29.7330 H       1  LIG1        0.0262
     26 H          24.3510   12.7020   31.1980 H       1  LIG1        0.0262
     27 H          23.0190   10.4500   29.5800 H       1  LIG1        0.0694
     28 H          23.9790   10.2160   31.0440 H       1  LIG1        0.0694
     29 H          19.1620    7.2240   32.8290 H       1  LIG1        0.0671
     30 H          17.7920    8.6080   33.9890 H       1  LIG1        0.1424
     31 H          17.8980   10.3610   33.9330 H       1  LIG1        0.1424
     32 H          22.3730    6.7240   31.1100 H       1  LIG1        0.1562
     33 H          21.3380    3.4830   31.3790 H       1  LIG1        0.0407
     34 H          21.2280    3.9760   29.7150 H       1  LIG1        0.0407
     35 H          23.0430    5.7720   28.8930 H       1  LIG1        0.0621
     36 H          25.4960    6.1270   28.8550 H       1  LIG1        0.0632
     37 H          25.9240    3.6580   32.3220 H       1  LIG1        0.0632
     38 H          23.4810    3.2860   32.3790 H       1  LIG1        0.0621
@<TRIPOS>BOND
     1     1     2    1
     2     1    24    1
     3     1    25    1
     4     1    26    1
     5     2     3    1
     6     2    27    1
     7     2    28    1
     8     3     4    1
     9     4    10   ar
    10     4     5   ar
    11     5     6   ar
    12     6     7   ar
    13     6    13    1
    14     7     8   ar
    15     7    29    1
    16     8     9    1
    17     8    10   ar
    18     9    30    1
    19     9    31    1
    20    10    11    1
    21    11    12    3
    22    13    14   am
    23    13    32    1
    24    14    15    2
    25    14    16    1
    26    16    17    1
    27    16    33    1
    28    16    34    1
    29    17    23   ar
    30    17    18   ar
    31    18    19   ar
    32    18    35    1
    33    19    20   ar
    34    19    36    1
    35    20    21    1
    36    20    22   ar
    37    22    23   ar
    38    22    37    1
    39    23    38    1
