@<TRIPOS>MOLECULE
lig_18624-1
 38 39 0 0 0
SMALL
GASTEIGER

@<TRIPOS>ATOM
      1 C          24.0160   12.2540   30.2760 C.3     1  LIG1       -0.0306
      2 C          23.2910   10.9310   30.5360 C.3     1  LIG1        0.0884
      3 O          22.1420   11.2130   31.3310 O.3     1  LIG1       -0.4757
      4 C          21.3320   10.1740   31.7570 C.ar    1  LIG1        0.2362
      5 N          21.6860    8.9140   31.3840 N.ar    1  LIG1       -0.1966
      6 C          20.8980    7.8950   31.7570 C.ar    1  LIG1        0.1305
      7 C          19.7600    8.0590   32.5320 C.ar    1  LIG1        0.0007
      8 C          19.4060    9.3390   32.9150 C.ar    1  LIG1        0.0506
      9 N          18.2480    9.4340   33.6770 N.pl3   1  LIG1       -0.3567
     10 C          20.1940   10.4360   32.5280 C.ar    1  LIG1        0.1337
     11 C          19.8720   11.8130   32.8830 C.1     1  LIG1        0.1064
     12 N          19.6250   12.9100   33.1610 N.1     1  LIG1       -0.1906
     13 N          21.4000    6.6890   31.3170 N.am    1  LIG1       -0.2700
     14 C          20.7830    5.5180   31.1300 C.2     1  LIG1        0.2226
     15 O          19.5710    5.3640   31.2680 O.2     1  LIG1       -0.2751
     16 C          21.6350    4.3090   30.7130 C.3     1  LIG1        0.0495
     17 C          23.1280    4.5970   30.5480 C.ar    1  LIG1       -0.0386
     18 C          23.5810    5.4160   29.5070 C.ar    1  LIG1       -0.0581
     19 C          24.9400    5.7010   29.3730 C.ar    1  LIG1       -0.0615
     20 C          25.8540    5.1670   30.2820 C.ar    1  LIG1       -0.0617
     21 C          25.4100    4.3460   31.3180 C.ar    1  LIG1       -0.0615
     22 C          24.0500    4.0610   31.4520 C.ar    1  LIG1       -0.0581
     23 H          24.9070   12.0980   29.6690 H       1  LIG1        0.0262
     24 H          23.3680   12.9520   29.7460 H       1  LIG1        0.0262
     25 H          24.3210   12.7250   31.2110 H       1  LIG1        0.0262
     26 H          22.9960   10.4700   29.5910 H       1  LIG1        0.0694
     27 H          23.9580   10.2380   31.0530 H       1  LIG1        0.0694
     28 H          19.1610    7.2150   32.8310 H       1  LIG1        0.0671
     29 H          17.7800    8.5900   33.9930 H       1  LIG1        0.1424
     30 H          17.8750   10.3450   33.9350 H       1  LIG1        0.1424
     31 H          22.3840    6.7400   31.1200 H       1  LIG1        0.1562
     32 H          21.4790    3.5190   31.4480 H       1  LIG1        0.0407
     33 H          21.2430    3.9300   29.7730 H       1  LIG1        0.0407
     34 H          22.8770    5.8380   28.8040 H       1  LIG1        0.0620
     35 H          25.2860    6.3340   28.5690 H       1  LIG1        0.0618
     36 H          26.9070    5.3920   30.1820 H       1  LIG1        0.0618
     37 H          26.1190    3.9320   32.0210 H       1  LIG1        0.0618
     38 H          23.7190    3.4240   32.2600 H       1  LIG1        0.0620
@<TRIPOS>BOND
     1     1     2    1
     2     1    23    1
     3     1    24    1
     4     1    25    1
     5     2     3    1
     6     2    26    1
     7     2    27    1
     8     3     4    1
     9     4    10   ar
    10     4     5   ar
    11     5     6   ar
    12     6     7   ar
    13     6    13    1
    14     7     8   ar
    15     7    28    1
    16     8     9    1
    17     8    10   ar
    18     9    29    1
    19     9    30    1
    20    10    11    1
    21    11    12    3
    22    13    14   am
    23    13    31    1
    24    14    15    2
    25    14    16    1
    26    16    17    1
    27    16    32    1
    28    16    33    1
    29    17    22   ar
    30    17    18   ar
    31    18    19   ar
    32    18    34    1
    33    19    20   ar
    34    19    35    1
    35    20    21   ar
    36    20    36    1
    37    21    22   ar
    38    21    37    1
    39    22    38    1
