@<TRIPOS>MOLECULE
lig_18635-1
 44 45 0 0 0
SMALL
GASTEIGER

@<TRIPOS>ATOM
      1 C          23.9500   12.4060   30.2950 C.3     1  LIG1       -0.0306
      2 C          23.2520   11.0660   30.5400 C.3     1  LIG1        0.0884
      3 O          22.1060   11.3120   31.3510 O.3     1  LIG1       -0.4757
      4 C          21.3260   10.2500   31.7750 C.ar    1  LIG1        0.2362
      5 N          21.7080    9.0020   31.3910 N.ar    1  LIG1       -0.1966
      6 C          20.9480    7.9620   31.7630 C.ar    1  LIG1        0.1305
      7 C          19.8110    8.0880   32.5460 C.ar    1  LIG1        0.0007
      8 C          19.4250    9.3590   32.9350 C.ar    1  LIG1        0.0506
      9 N          18.2610    9.4250   33.6910 N.pl3   1  LIG1       -0.3567
     10 C          20.1830   10.4770   32.5510 C.ar    1  LIG1        0.1337
     11 C          19.8270   11.8460   32.9060 C.1     1  LIG1        0.1064
     12 N          19.5530   12.9360   33.1820 N.1     1  LIG1       -0.1906
     13 N          21.4600    6.7900   31.2550 N.am    1  LIG1       -0.2700
     14 C          20.8690    5.6160   31.0260 C.2     1  LIG1        0.2226
     15 O          19.7070    5.3520   31.3320 O.2     1  LIG1       -0.2751
     16 C          21.6960    4.6000   30.2410 C.3     1  LIG1        0.0497
     17 C          23.0920    4.3590   30.8150 C.ar    1  LIG1       -0.0355
     18 C          23.3320    3.5010   31.9080 C.ar    1  LIG1       -0.0468
     19 C          22.2240    2.7560   32.6420 C.3     1  LIG1       -0.0394
     20 C          24.6380    3.3400   32.3790 C.ar    1  LIG1       -0.0583
     21 C          25.7010    4.0060   31.7730 C.ar    1  LIG1       -0.0586
     22 C          25.4680    4.8550   30.6930 C.ar    1  LIG1       -0.0502
     23 C          26.6270    5.5870   30.0440 C.3     1  LIG1       -0.0397
     24 C          24.1670    5.0300   30.2230 C.ar    1  LIG1       -0.0549
     25 H          24.8370   12.2780   29.6760 H       1  LIG1        0.0262
     26 H          23.2830   13.1010   29.7840 H       1  LIG1        0.0262
     27 H          24.2550   12.8660   31.2340 H       1  LIG1        0.0262
     28 H          22.9560   10.6140   29.5900 H       1  LIG1        0.0694
     29 H          23.9390   10.3780   31.0380 H       1  LIG1        0.0694
     30 H          19.2320    7.2270   32.8340 H       1  LIG1        0.0671
     31 H          17.8090    8.5700   34.0030 H       1  LIG1        0.1424
     32 H          17.8690   10.3270   33.9520 H       1  LIG1        0.1424
     33 H          22.4120    6.9080   30.9610 H       1  LIG1        0.1562
     34 H          21.1580    3.6550   30.1890 H       1  LIG1        0.0407
     35 H          21.7530    4.9680   29.2240 H       1  LIG1        0.0407
     36 H          21.3550    2.5380   32.0260 H       1  LIG1        0.0278
     37 H          22.5860    1.8000   33.0230 H       1  LIG1        0.0278
     38 H          21.8980    3.3490   33.4960 H       1  LIG1        0.0278
     39 H          24.8350    2.6930   33.2230 H       1  LIG1        0.0620
     40 H          26.7050    3.8660   32.1480 H       1  LIG1        0.0620
     41 H          27.2820    6.0180   30.8020 H       1  LIG1        0.0278
     42 H          27.2130    4.8990   29.4340 H       1  LIG1        0.0278
     43 H          26.2820    6.4020   29.4050 H       1  LIG1        0.0278
     44 H          23.9870    5.7100   29.4030 H       1  LIG1        0.0623
@<TRIPOS>BOND
     1     1     2    1
     2     1    25    1
     3     1    26    1
     4     1    27    1
     5     2     3    1
     6     2    28    1
     7     2    29    1
     8     3     4    1
     9     4    10   ar
    10     4     5   ar
    11     5     6   ar
    12     6     7   ar
    13     6    13    1
    14     7     8   ar
    15     7    30    1
    16     8     9    1
    17     8    10   ar
    18     9    31    1
    19     9    32    1
    20    10    11    1
    21    11    12    3
    22    13    14   am
    23    13    33    1
    24    14    15    2
    25    14    16    1
    26    16    17    1
    27    16    34    1
    28    16    35    1
    29    17    24   ar
    30    17    18   ar
    31    18    19    1
    32    18    20   ar
    33    19    36    1
    34    19    37    1
    35    19    38    1
    36    20    21   ar
    37    20    39    1
    38    21    22   ar
    39    21    40    1
    40    22    23    1
    41    22    24   ar
    42    23    41    1
    43    23    42    1
    44    23    43    1
    45    24    44    1
