@<TRIPOS>MOLECULE
lig_18637-1
 53 54 0 0 0
SMALL
GASTEIGER

@<TRIPOS>ATOM
      1 C          24.0680   12.3970   30.2300 C.3     1  LIG1       -0.0306
      2 C          23.3160   11.0780   30.4230 C.3     1  LIG1        0.0884
      3 O          22.2070   11.3320   31.2810 O.3     1  LIG1       -0.4757
      4 C          21.4080   10.2810   31.6980 C.ar    1  LIG1        0.2362
      5 N          21.7480    9.0320   31.2790 N.ar    1  LIG1       -0.1966
      6 C          20.9740    8.0020   31.6540 C.ar    1  LIG1        0.1305
      7 C          19.8660    8.1460   32.4780 C.ar    1  LIG1        0.0007
      8 C          19.5200    9.4180   32.8980 C.ar    1  LIG1        0.0506
      9 N          18.3830    9.4990   33.6930 N.pl3   1  LIG1       -0.3567
     10 C          20.2910   10.5240   32.5050 C.ar    1  LIG1        0.1337
     11 C          19.9670   11.8930   32.8850 C.1     1  LIG1        0.1064
     12 N          19.7170   12.9840   33.1810 N.1     1  LIG1       -0.1906
     13 N          21.4330    6.8190   31.1100 N.am    1  LIG1       -0.2700
     14 C          20.8530    5.6190   31.0280 C.2     1  LIG1        0.2227
     15 O          19.7270    5.3570   31.4480 O.2     1  LIG1       -0.2751
     16 C          21.6390    4.5480   30.2800 C.3     1  LIG1        0.0530
     17 C          23.0290    4.2860   30.8550 C.ar    1  LIG1        0.0066
     18 C          24.1070    5.1200   30.5270 C.ar    1  LIG1        0.1257
     19 O          23.8490    6.2030   29.7040 O.3     1  LIG1       -0.4948
     20 C          24.8540    7.1990   29.5180 C.3     1  LIG1        0.0788
     21 C          25.3720    4.8230   31.0460 C.ar    1  LIG1        0.0051
     22 C          25.5640    3.7380   31.9140 C.ar    1  LIG1        0.0791
     23 C          24.4770    2.9180   32.2550 C.ar    1  LIG1        0.1417
     24 C          23.2160    3.2000   31.7130 C.ar    1  LIG1       -0.0110
     25 O          24.7080    1.8720   33.1350 O.3     1  LIG1       -0.4932
     26 C          23.7950    0.7760   33.1650 C.3     1  LIG1        0.0789
     27 N          26.8110    3.4130   32.4990 N.am    1  LIG1       -0.2827
     28 C          28.0300    3.9580   32.3630 C.2     1  LIG1        0.2142
     29 O          28.3090    4.8810   31.6040 O.2     1  LIG1       -0.2758
     30 C          29.1270    3.3860   33.2440 C.3     1  LIG1        0.0125
     31 H          24.9130   12.2710   29.5530 H       1  LIG1        0.0262
     32 H          23.4120   13.1590   29.8080 H       1  LIG1        0.0262
     33 H          24.4480   12.7740   31.1800 H       1  LIG1        0.0262
     34 H          22.9680   10.6940   29.4610 H       1  LIG1        0.0694
     35 H          23.9860   10.3340   30.8590 H       1  LIG1        0.0694
     36 H          19.2720    7.2990   32.7770 H       1  LIG1        0.0671
     37 H          17.9980   10.4050   33.9510 H       1  LIG1        0.1424
     38 H          17.9020    8.6510   33.9780 H       1  LIG1        0.1424
     39 H          22.3410    6.9230   30.6840 H       1  LIG1        0.1562
     40 H          21.0720    3.6220   30.2390 H       1  LIG1        0.0408
     41 H          21.7300    4.9030   29.2590 H       1  LIG1        0.0408
     42 H          25.1770    7.6320   30.4670 H       1  LIG1        0.0660
     43 H          25.7220    6.8020   28.9900 H       1  LIG1        0.0660
     44 H          24.4470    8.0090   28.9130 H       1  LIG1        0.0660
     45 H          26.2050    5.4490   30.7820 H       1  LIG1        0.0674
     46 H          22.3700    2.5750   31.9550 H       1  LIG1        0.0659
     47 H          24.1830    0.0080   33.8350 H       1  LIG1        0.0660
     48 H          22.8120    1.0580   33.5380 H       1  LIG1        0.0660
     49 H          23.6830    0.3200   32.1820 H       1  LIG1        0.0660
     50 H          26.7330    2.6380   33.1390 H       1  LIG1        0.1549
     51 H          28.7670    2.6000   33.9070 H       1  LIG1        0.0323
     52 H          29.9210    2.9780   32.6210 H       1  LIG1        0.0323
     53 H          29.5480    4.1840   33.8560 H       1  LIG1        0.0323
@<TRIPOS>BOND
     1     1     2    1
     2     1    31    1
     3     1    32    1
     4     1    33    1
     5     2     3    1
     6     2    34    1
     7     2    35    1
     8     3     4    1
     9     4    10   ar
    10     4     5   ar
    11     5     6   ar
    12     6     7   ar
    13     6    13    1
    14     7     8   ar
    15     7    36    1
    16     8     9    1
    17     8    10   ar
    18     9    37    1
    19     9    38    1
    20    10    11    1
    21    11    12    3
    22    13    14   am
    23    13    39    1
    24    14    15    2
    25    14    16    1
    26    16    17    1
    27    16    40    1
    28    16    41    1
    29    17    24   ar
    30    17    18   ar
    31    18    19    1
    32    18    21   ar
    33    19    20    1
    34    20    42    1
    35    20    43    1
    36    20    44    1
    37    21    22   ar
    38    21    45    1
    39    22    23   ar
    40    22    27    1
    41    23    24   ar
    42    23    25    1
    43    24    46    1
    44    25    26    1
    45    26    47    1
    46    26    48    1
    47    26    49    1
    48    27    28   am
    49    27    50    1
    50    28    29    2
    51    28    30    1
    52    30    51    1
    53    30    52    1
    54    30    53    1
