lig_18629-1
     RDKit          3D

 41 42  0  0  0  0  0  0  0  0999 V2000
   24.0510   12.2020   30.2640 C   0  0  0  0  0  0  0  0  0  0  0  0
   23.3160   10.8860   30.5330 C   0  0  0  0  0  0  0  0  0  0  0  0
   22.1660   11.1830   31.3210 O   0  0  0  0  0  0  0  0  0  0  0  0
   21.3480   10.1520   31.7510 C   0  0  0  0  0  0  0  0  0  0  0  0
   21.6920    8.8870   31.3850 N   0  0  0  0  0  0  0  0  0  0  0  0
   20.8970    7.8770   31.7650 C   0  0  0  0  0  0  0  0  0  0  0  0
   19.7610    8.0530   32.5390 C   0  0  0  0  0  0  0  0  0  0  0  0
   19.4160    9.3370   32.9150 C   0  0  0  0  0  0  0  0  0  0  0  0
   18.2590    9.4440   33.6760 N   0  0  0  0  0  0  0  0  0  0  0  0
   20.2110   10.4260   32.5220 C   0  0  0  0  0  0  0  0  0  0  0  0
   19.8990   11.8070   32.8720 C   0  0  0  0  0  0  0  0  0  0  0  0
   19.6590   12.9060   33.1460 N   0  0  0  0  0  0  0  0  0  0  0  0
   21.3870    6.6640   31.3300 N   0  0  0  0  0  0  0  0  0  0  0  0
   20.7490    5.5080   31.1220 C   0  0  0  0  0  0  0  0  0  0  0  0
   19.5320    5.3800   31.2430 O   0  0  0  0  0  0  0  0  0  0  0  0
   21.5760    4.2860   30.6940 C   0  0  0  0  0  0  0  0  0  0  0  0
   23.0910    4.4910   30.6830 C   0  0  0  0  0  0  0  0  0  0  0  0
   23.6890    5.3700   29.7690 C   0  0  0  0  0  0  0  0  0  0  0  0
   25.0670    5.5920   29.8020 C   0  0  0  0  0  0  0  0  0  0  0  0
   25.7100    6.5800   28.8490 C   0  0  0  0  0  0  0  0  0  0  0  0
   25.8570    4.9020   30.7230 C   0  0  0  0  0  0  0  0  0  0  0  0
   25.2700    4.0090   31.6200 C   0  0  0  0  0  0  0  0  0  0  0  0
   23.8910    3.8070   31.6030 C   0  0  0  0  0  0  0  0  0  0  0  0
   24.9430   12.0350   29.6610 H   0  0  0  0  0  0  0  0  0  0  0  0
   23.4100   12.8990   29.7240 H   0  0  0  0  0  0  0  0  0  0  0  0
   24.3550   12.6790   31.1950 H   0  0  0  0  0  0  0  0  0  0  0  0
   23.0220   10.4180   29.5910 H   0  0  0  0  0  0  0  0  0  0  0  0
   23.9770   10.1940   31.0580 H   0  0  0  0  0  0  0  0  0  0  0  0
   19.1560    7.2140   32.8420 H   0  0  0  0  0  0  0  0  0  0  0  0
   17.7830    8.6040   33.9930 H   0  0  0  0  0  0  0  0  0  0  0  0
   17.8900   10.3570   33.9300 H   0  0  0  0  0  0  0  0  0  0  0  0
   22.3760    6.6960   31.1560 H   0  0  0  0  0  0  0  0  0  0  0  0
   21.3190    3.4660   31.3620 H   0  0  0  0  0  0  0  0  0  0  0  0
   21.2480    3.9880   29.7030 H   0  0  0  0  0  0  0  0  0  0  0  0
   23.0790    5.8960   29.0480 H   0  0  0  0  0  0  0  0  0  0  0  0
   24.9880    7.3050   28.4730 H   0  0  0  0  0  0  0  0  0  0  0  0
   26.5050    7.1380   29.3470 H   0  0  0  0  0  0  0  0  0  0  0  0
   26.1450    6.0540   27.9990 H   0  0  0  0  0  0  0  0  0  0  0  0
   26.9250    5.0640   30.7500 H   0  0  0  0  0  0  0  0  0  0  0  0
   25.8860    3.4780   32.3330 H   0  0  0  0  0  0  0  0  0  0  0  0
   23.4490    3.1150   32.3060 H   0  0  0  0  0  0  0  0  0  0  0  0
  1  2  1  0
  1 24  1  0
  1 25  1  0
  1 26  1  0
  2  3  1  0
  2 27  1  0
  2 28  1  0
  3  4  1  0
  4 10  2  0
  4  5  1  0
  5  6  2  0
  6  7  1  0
  6 13  1  0
  7  8  2  0
  7 29  1  0
  8  9  1  0
  8 10  1  0
  9 30  1  0
  9 31  1  0
 10 11  1  0
 11 12  3  0
 13 14  1  0
 13 32  1  0
 14 15  2  0
 14 16  1  0
 16 17  1  0
 16 33  1  0
 16 34  1  0
 17 23  1  0
 17 18  2  0
 18 19  1  0
 18 35  1  0
 19 20  1  0
 19 21  2  0
 20 36  1  0
 20 37  1  0
 20 38  1  0
 21 22  1  0
 21 39  1  0
 22 23  2  0
 22 40  1  0
 23 41  1  0
M  END
$$$$
