@<TRIPOS>MOLECULE
lig_18628-1
 41 42 0 0 0
SMALL
GASTEIGER

@<TRIPOS>ATOM
      1 C          23.9600   12.3160   30.2950 C.3     1  LIG1       -0.0306
      2 C          23.2560   10.9820   30.5540 C.3     1  LIG1        0.0884
      3 O          22.1040   11.2450   31.3510 O.3     1  LIG1       -0.4757
      4 C          21.3110   10.1910   31.7750 C.ar    1  LIG1        0.2362
      5 N          21.6910    8.9380   31.4090 N.ar    1  LIG1       -0.1966
      6 C          20.9230    7.9050   31.7790 C.ar    1  LIG1        0.1305
      7 C          19.7730    8.0450   32.5400 C.ar    1  LIG1        0.0007
      8 C          19.3900    9.3200   32.9190 C.ar    1  LIG1        0.0506
      9 N          18.2230    9.3990   33.6690 N.pl3   1  LIG1       -0.3567
     10 C          20.1630   10.4310   32.5380 C.ar    1  LIG1        0.1337
     11 C          19.8170   11.8040   32.8910 C.1     1  LIG1        0.1064
     12 N          19.5530   12.8970   33.1660 N.1     1  LIG1       -0.1906
     13 N          21.4660    6.7160   31.3470 N.am    1  LIG1       -0.2700
     14 C          20.9020    5.5220   31.1450 C.2     1  LIG1        0.2226
     15 O          19.7010    5.3110   31.3000 O.2     1  LIG1       -0.2751
     16 C          21.8100    4.3700   30.6810 C.3     1  LIG1        0.0497
     17 C          23.2680    4.7660   30.3670 C.ar    1  LIG1       -0.0357
     18 C          24.3650    4.2250   31.0650 C.ar    1  LIG1       -0.0468
     19 C          24.1950    3.1870   32.1610 C.3     1  LIG1       -0.0394
     20 C          25.6600    4.6620   30.7690 C.ar    1  LIG1       -0.0586
     21 C          25.8780    5.6250   29.7870 C.ar    1  LIG1       -0.0615
     22 C          24.8020    6.1470   29.0790 C.ar    1  LIG1       -0.0615
     23 C          23.5090    5.7100   29.3590 C.ar    1  LIG1       -0.0579
     24 H          24.2590   12.7900   31.2290 H       1  LIG1        0.0262
     25 H          24.8530   12.1750   29.6860 H       1  LIG1        0.0262
     26 H          23.3010   13.0050   29.7670 H       1  LIG1        0.0262
     27 H          22.9670   10.5180   29.6080 H       1  LIG1        0.0694
     28 H          23.9360   10.2990   31.0680 H       1  LIG1        0.0694
     29 H          19.1890    7.1880   32.8320 H       1  LIG1        0.0671
     30 H          17.8430   10.3050   33.9320 H       1  LIG1        0.1424
     31 H          17.7720    8.5490   33.9950 H       1  LIG1        0.1424
     32 H          22.4450    6.8120   31.1370 H       1  LIG1        0.1562
     33 H          21.7440    3.5900   31.4370 H       1  LIG1        0.0407
     34 H          21.3670    3.9450   29.7840 H       1  LIG1        0.0407
     35 H          23.5760    2.3530   31.8280 H       1  LIG1        0.0278
     36 H          25.1500    2.7670   32.4780 H       1  LIG1        0.0278
     37 H          23.7380    3.6560   33.0280 H       1  LIG1        0.0278
     38 H          26.5080    4.2620   31.3080 H       1  LIG1        0.0620
     39 H          26.8830    5.9670   29.5750 H       1  LIG1        0.0618
     40 H          24.9760    6.8920   28.3170 H       1  LIG1        0.0618
     41 H          22.6800    6.1270   28.8050 H       1  LIG1        0.0620
@<TRIPOS>BOND
     1     1     2    1
     2     1    24    1
     3     1    25    1
     4     1    26    1
     5     2     3    1
     6     2    27    1
     7     2    28    1
     8     3     4    1
     9     4    10   ar
    10     4     5   ar
    11     5     6   ar
    12     6     7   ar
    13     6    13    1
    14     7     8   ar
    15     7    29    1
    16     8     9    1
    17     8    10   ar
    18     9    30    1
    19     9    31    1
    20    10    11    1
    21    11    12    3
    22    13    14   am
    23    13    32    1
    24    14    15    2
    25    14    16    1
    26    16    17    1
    27    16    33    1
    28    16    34    1
    29    17    23   ar
    30    17    18   ar
    31    18    19    1
    32    18    20   ar
    33    19    35    1
    34    19    36    1
    35    19    37    1
    36    20    21   ar
    37    20    38    1
    38    21    22   ar
    39    21    39    1
    40    22    23   ar
    41    22    40    1
    42    23    41    1
