@<TRIPOS>MOLECULE
lig_18636-1
 38 39 0 0 0
SMALL
GASTEIGER

@<TRIPOS>ATOM
      1 C          23.9800   12.4590   30.2880 C.3     1  LIG1       -0.0306
      2 C          23.2750   11.1170   30.5000 C.3     1  LIG1        0.0884
      3 O          22.1370   11.3490   31.3270 O.3     1  LIG1       -0.4757
      4 C          21.3560   10.2810   31.7350 C.ar    1  LIG1        0.2362
      5 N          21.7260    9.0410   31.3140 N.ar    1  LIG1       -0.1966
      6 C          20.9680    7.9950   31.6700 C.ar    1  LIG1        0.1305
      7 C          19.8450    8.1070   32.4770 C.ar    1  LIG1        0.0007
      8 C          19.4690    9.3700   32.9030 C.ar    1  LIG1        0.0506
      9 N          18.3180    9.4270   33.6810 N.pl3   1  LIG1       -0.3567
     10 C          20.2250   10.4940   32.5300 C.ar    1  LIG1        0.1337
     11 C          19.8740   11.8560   32.9150 C.1     1  LIG1        0.1064
     12 N          19.6040   12.9410   33.2140 N.1     1  LIG1       -0.1906
     13 N          21.4730    6.8390   31.1130 N.am    1  LIG1       -0.2700
     14 C          20.9420    5.6180   31.0120 C.2     1  LIG1        0.2226
     15 O          19.8420    5.2960   31.4540 O.2     1  LIG1       -0.2751
     16 C          21.7560    4.6030   30.2160 C.3     1  LIG1        0.0505
     17 C          23.0780    4.2280   30.8820 C.ar    1  LIG1       -0.0236
     18 C          23.1370    3.3170   31.9520 C.ar    1  LIG1        0.0216
     19 BR         21.5740    2.4700   32.6410 Br      1  LIG1       -0.0500
     20 C          24.3630    3.0180   32.5460 C.ar    1  LIG1       -0.0464
     21 C          25.5370    3.6080   32.0770 C.ar    1  LIG1       -0.0467
     22 C          25.4840    4.5100   31.0170 C.ar    1  LIG1        0.0182
     23 BR         27.0820    5.3240   30.3860 Br      1  LIG1       -0.0503
     24 C          24.2610    4.8200   30.4250 C.ar    1  LIG1       -0.0431
     25 H          24.8610   12.3430   29.6580 H       1  LIG1        0.0262
     26 H          23.3130   13.1720   29.8030 H       1  LIG1        0.0262
     27 H          24.2960   12.8900   31.2370 H       1  LIG1        0.0262
     28 H          22.9680   10.6930   29.5420 H       1  LIG1        0.0694
     29 H          23.9610   10.4110   30.9740 H       1  LIG1        0.0694
     30 H          19.2630    7.2450   32.7570 H       1  LIG1        0.0671
     31 H          17.8620    8.5710   33.9830 H       1  LIG1        0.1424
     32 H          17.9270   10.3270   33.9510 H       1  LIG1        0.1424
     33 H          22.3650    7.0190   30.6860 H       1  LIG1        0.1562
     34 H          21.1610    3.7070   30.0530 H       1  LIG1        0.0407
     35 H          21.9270    5.0300   29.2320 H       1  LIG1        0.0407
     36 H          24.3990    2.3220   33.3730 H       1  LIG1        0.0629
     37 H          26.4870    3.3750   32.5340 H       1  LIG1        0.0629
     38 H          24.2430    5.5410   29.6200 H       1  LIG1        0.0632
@<TRIPOS>BOND
     1     1     2    1
     2     1    25    1
     3     1    26    1
     4     1    27    1
     5     2     3    1
     6     2    28    1
     7     2    29    1
     8     3     4    1
     9     4    10   ar
    10     4     5   ar
    11     5     6   ar
    12     6     7   ar
    13     6    13    1
    14     7     8   ar
    15     7    30    1
    16     8     9    1
    17     8    10   ar
    18     9    31    1
    19     9    32    1
    20    10    11    1
    21    11    12    3
    22    13    14   am
    23    13    33    1
    24    14    15    2
    25    14    16    1
    26    16    17    1
    27    16    34    1
    28    16    35    1
    29    17    24   ar
    30    17    18   ar
    31    18    19    1
    32    18    20   ar
    33    20    21   ar
    34    20    36    1
    35    21    22   ar
    36    21    37    1
    37    22    23    1
    38    22    24   ar
    39    24    38    1
