lig_18634-1
     RDKit          3D

 46 47  0  0  0  0  0  0  0  0999 V2000
   24.0730   12.4030   30.2320 C   0  0  0  0  0  0  0  0  0  0  0  0
   23.3270   11.0820   30.4340 C   0  0  0  0  0  0  0  0  0  0  0  0
   22.2090   11.3390   31.2790 O   0  0  0  0  0  0  0  0  0  0  0  0
   21.4080   10.2890   31.6940 C   0  0  0  0  0  0  0  0  0  0  0  0
   21.7460    9.0390   31.2730 N   0  0  0  0  0  0  0  0  0  0  0  0
   20.9690    8.0100   31.6440 C   0  0  0  0  0  0  0  0  0  0  0  0
   19.8630    8.1540   32.4700 C   0  0  0  0  0  0  0  0  0  0  0  0
   19.5190    9.4250   32.8940 C   0  0  0  0  0  0  0  0  0  0  0  0
   18.3840    9.5060   33.6910 N   0  0  0  0  0  0  0  0  0  0  0  0
   20.2910   10.5310   32.5020 C   0  0  0  0  0  0  0  0  0  0  0  0
   19.9690   11.9010   32.8840 C   0  0  0  0  0  0  0  0  0  0  0  0
   19.7200   12.9910   33.1810 N   0  0  0  0  0  0  0  0  0  0  0  0
   21.4260    6.8280   31.0990 N   0  0  0  0  0  0  0  0  0  0  0  0
   20.8490    5.6260   31.0240 C   0  0  0  0  0  0  0  0  0  0  0  0
   19.7220    5.3640   31.4400 O   0  0  0  0  0  0  0  0  0  0  0  0
   21.6450    4.5490   30.2960 C   0  0  0  0  0  0  0  0  0  0  0  0
   23.0490    4.3420   30.8590 C   0  0  0  0  0  0  0  0  0  0  0  0
   24.1090    5.1750   30.4710 C   0  0  0  0  0  0  0  0  0  0  0  0
   23.8250    6.2110   29.5990 O   0  0  0  0  0  0  0  0  0  0  0  0
   24.7820    7.2540   29.4260 C   0  0  0  0  0  0  0  0  0  0  0  0
   25.3880    4.9250   30.9870 C   0  0  0  0  0  0  0  0  0  0  0  0
   25.5910    3.9090   31.9220 C   0  0  0  0  0  0  0  0  0  0  0  0
   24.5220    3.1090   32.3470 C   0  0  0  0  0  0  0  0  0  0  0  0
   23.2660    3.3180   31.7860 C   0  0  0  0  0  0  0  0  0  0  0  0
   24.6160    2.1140   33.2980 O   0  0  0  0  0  0  0  0  0  0  0  0
   25.8230    1.9830   34.0420 C   0  0  0  0  0  0  0  0  0  0  0  0
   24.9320   12.2710   29.5740 H   0  0  0  0  0  0  0  0  0  0  0  0
   23.4200   13.1520   29.7830 H   0  0  0  0  0  0  0  0  0  0  0  0
   24.4310   12.7990   31.1830 H   0  0  0  0  0  0  0  0  0  0  0  0
   22.9920   10.6830   29.4740 H   0  0  0  0  0  0  0  0  0  0  0  0
   23.9970   10.3470   30.8880 H   0  0  0  0  0  0  0  0  0  0  0  0
   19.2670    7.3080   32.7670 H   0  0  0  0  0  0  0  0  0  0  0  0
   18.0000   10.4110   33.9500 H   0  0  0  0  0  0  0  0  0  0  0  0
   17.9030    8.6580   33.9750 H   0  0  0  0  0  0  0  0  0  0  0  0
   22.3340    6.9320   30.6730 H   0  0  0  0  0  0  0  0  0  0  0  0
   21.0990    3.6090   30.2960 H   0  0  0  0  0  0  0  0  0  0  0  0
   21.7110    4.8750   29.2640 H   0  0  0  0  0  0  0  0  0  0  0  0
   25.6790    6.8960   28.9180 H   0  0  0  0  0  0  0  0  0  0  0  0
   24.3490    8.0400   28.8070 H   0  0  0  0  0  0  0  0  0  0  0  0
   25.0650    7.7070   30.3780 H   0  0  0  0  0  0  0  0  0  0  0  0
   26.2330    5.5260   30.6890 H   0  0  0  0  0  0  0  0  0  0  0  0
   26.5850    3.7610   32.3160 H   0  0  0  0  0  0  0  0  0  0  0  0
   22.4550    2.6720   32.0910 H   0  0  0  0  0  0  0  0  0  0  0  0
   26.6590    1.6970   33.4040 H   0  0  0  0  0  0  0  0  0  0  0  0
   26.0720    2.9040   34.5710 H   0  0  0  0  0  0  0  0  0  0  0  0
   25.7000    1.2000   34.7910 H   0  0  0  0  0  0  0  0  0  0  0  0
  1  2  1  0
  1 27  1  0
  1 28  1  0
  1 29  1  0
  2  3  1  0
  2 30  1  0
  2 31  1  0
  3  4  1  0
  4 10  2  0
  4  5  1  0
  5  6  2  0
  6  7  1  0
  6 13  1  0
  7  8  2  0
  7 32  1  0
  8  9  1  0
  8 10  1  0
  9 33  1  0
  9 34  1  0
 10 11  1  0
 11 12  3  0
 13 14  1  0
 13 35  1  0
 14 15  2  0
 14 16  1  0
 16 17  1  0
 16 36  1  0
 16 37  1  0
 17 24  1  0
 17 18  2  0
 18 19  1  0
 18 21  1  0
 19 20  1  0
 20 38  1  0
 20 39  1  0
 20 40  1  0
 21 22  2  0
 21 41  1  0
 22 23  1  0
 22 42  1  0
 23 24  2  0
 23 25  1  0
 24 43  1  0
 25 26  1  0
 26 44  1  0
 26 45  1  0
 26 46  1  0
M  END
$$$$
