@<TRIPOS>MOLECULE
lig_18652-1
 55 56 0 0 0
SMALL
GASTEIGER

@<TRIPOS>ATOM
      1 C          24.4150   10.2470   30.7180 C.3     1  LIG1       -0.0280
      2 C          23.2190   11.0460   30.1840 C.3     1  LIG1        0.0963
      3 C          22.7150   10.5300   28.8280 C.3     1  LIG1       -0.0280
      4 O          22.1810   11.2380   31.1570 O.3     1  LIG1       -0.4727
      5 C          21.4030   10.2020   31.6510 C.ar    1  LIG1        0.2364
      6 N          21.7300    8.9410   31.2770 N.ar    1  LIG1       -0.1966
      7 C          20.9700    7.9250   31.6880 C.ar    1  LIG1        0.1305
      8 C          19.8690    8.0880   32.5170 C.ar    1  LIG1        0.0007
      9 C          19.5320    9.3740   32.9070 C.ar    1  LIG1        0.0506
     10 N          18.4020    9.4820   33.7080 N.pl3   1  LIG1       -0.3567
     11 C          20.3040   10.4680   32.4770 C.ar    1  LIG1        0.1337
     12 C          19.9960   11.8470   32.8390 C.1     1  LIG1        0.1064
     13 N          19.7580   12.9440   33.1220 N.1     1  LIG1       -0.1906
     14 N          21.4460    6.7430   31.1640 N.am    1  LIG1       -0.2700
     15 C          20.8520    5.5560   31.0440 C.2     1  LIG1        0.2227
     16 O          19.7090    5.3140   31.4220 O.2     1  LIG1       -0.2751
     17 C          21.6440    4.4870   30.3020 C.3     1  LIG1        0.0530
     18 C          22.9980    4.1710   30.9300 C.ar    1  LIG1        0.0066
     19 C          24.1220    4.9620   30.6450 C.ar    1  LIG1        0.1257
     20 O          23.9390    6.0560   29.8170 O.3     1  LIG1       -0.4948
     21 C          25.0660    6.8320   29.4150 C.3     1  LIG1        0.0788
     22 C          25.3550    4.6080   31.2080 C.ar    1  LIG1        0.0087
     23 C          25.4610    3.5030   32.0580 C.ar    1  LIG1        0.1328
     24 S          27.0700    3.0790   32.7390 S.O2    1  LIG1       -0.0023
     25 O          26.9130    2.7680   34.1690 O.2     1  LIG1       -0.1695
     26 O          28.0400    4.1080   32.3300 O.2     1  LIG1       -0.1695
     27 C          27.5190    1.5240   31.8680 C.3     1  LIG1        0.0597
     28 C          24.3410    2.7130   32.3510 C.ar    1  LIG1        0.1453
     29 C          23.1130    3.0640   31.7750 C.ar    1  LIG1       -0.0109
     30 O          24.5000    1.6310   33.1960 O.3     1  LIG1       -0.4932
     31 C          23.5380    0.5810   33.1830 C.3     1  LIG1        0.0789
     32 H          24.7410   10.6620   31.6660 H       1  LIG1        0.0265
     33 H          24.1780    9.1990   30.8860 H       1  LIG1        0.0265
     34 H          25.2500   10.2780   30.0190 H       1  LIG1        0.0265
     35 H          23.5910   12.0560   30.0010 H       1  LIG1        0.0728
     36 H          21.9550   11.1990   28.4340 H       1  LIG1        0.0265
     37 H          23.5250   10.4950   28.1010 H       1  LIG1        0.0265
     38 H          22.2880    9.5300   28.8820 H       1  LIG1        0.0265
     39 H          19.2800    7.2460   32.8400 H       1  LIG1        0.0671
     40 H          17.9100    8.6430   34.0020 H       1  LIG1        0.1424
     41 H          18.0220   10.3950   33.9430 H       1  LIG1        0.1424
     42 H          22.3660    6.8520   30.7690 H       1  LIG1        0.1562
     43 H          21.0570    3.5780   30.2100 H       1  LIG1        0.0408
     44 H          21.7880    4.8640   29.2940 H       1  LIG1        0.0408
     45 H          25.7830    6.2360   28.8490 H       1  LIG1        0.0660
     46 H          24.7300    7.6420   28.7670 H       1  LIG1        0.0660
     47 H          25.5720    7.2880   30.2670 H       1  LIG1        0.0660
     48 H          26.2390    5.1870   30.9960 H       1  LIG1        0.0674
     49 H          27.5470    1.7070   30.7960 H       1  LIG1        0.0468
     50 H          28.4940    1.1900   32.2140 H       1  LIG1        0.0468
     51 H          26.7700    0.7660   32.0900 H       1  LIG1        0.0468
     52 H          22.2360    2.4670   31.9690 H       1  LIG1        0.0659
     53 H          22.5550    0.9010   33.5260 H       1  LIG1        0.0660
     54 H          23.4440    0.1420   32.1900 H       1  LIG1        0.0660
     55 H          23.8680   -0.2110   33.8550 H       1  LIG1        0.0660
@<TRIPOS>BOND
     1     1     2    1
     2     1    32    1
     3     1    33    1
     4     1    34    1
     5     2     3    1
     6     2     4    1
     7     2    35    1
     8     3    36    1
     9     3    37    1
    10     3    38    1
    11     4     5    1
    12     5    11   ar
    13     5     6   ar
    14     6     7   ar
    15     7     8   ar
    16     7    14    1
    17     8     9   ar
    18     8    39    1
    19     9    10    1
    20     9    11   ar
    21    10    40    1
    22    10    41    1
    23    11    12    1
    24    12    13    3
    25    14    15   am
    26    14    42    1
    27    15    16    2
    28    15    17    1
    29    17    18    1
    30    17    43    1
    31    17    44    1
    32    18    29   ar
    33    18    19   ar
    34    19    20    1
    35    19    22   ar
    36    20    21    1
    37    21    45    1
    38    21    46    1
    39    21    47    1
    40    22    23   ar
    41    22    48    1
    42    23    24    1
    43    23    28   ar
    44    24    25    2
    45    24    26    2
    46    24    27    1
    47    27    49    1
    48    27    50    1
    49    27    51    1
    50    28    29   ar
    51    28    30    1
    52    29    52    1
    53    30    31    1
    54    31    53    1
    55    31    54    1
    56    31    55    1
