@<TRIPOS>MOLECULE
lig_18660-1
 52 53 0 0 0
SMALL
GASTEIGER

@<TRIPOS>ATOM
      1 C          21.2240   13.7580   29.7740 C.3     1  LIG1        0.0546
      2 S          22.9860   13.4240   29.4250 S.O2    1  LIG1       -0.0306
      3 O          23.3320   14.1350   28.1850 O.2     1  LIG1       -0.1745
      4 O          23.7520   13.6650   30.6540 O.2     1  LIG1       -0.1745
      5 C          23.0350   11.6250   29.1010 C.3     1  LIG1        0.0995
      6 C          23.2420   10.8260   30.3900 C.3     1  LIG1        0.1105
      7 O          22.1370   11.0910   31.2620 O.3     1  LIG1       -0.4738
      8 C          21.3480   10.0700   31.7540 C.ar    1  LIG1        0.2362
      9 N          21.6930    8.8110   31.3990 N.ar    1  LIG1       -0.1966
     10 C          20.9170    7.8000   31.7870 C.ar    1  LIG1        0.1305
     11 C          19.7850    7.9630   32.5720 C.ar    1  LIG1        0.0007
     12 C          19.4340    9.2500   32.9460 C.ar    1  LIG1        0.0506
     13 N          18.2720    9.3640   33.7010 N.pl3   1  LIG1       -0.3567
     14 C          20.2240   10.3410   32.5430 C.ar    1  LIG1        0.1337
     15 C          19.9110   11.7210   32.8950 C.1     1  LIG1        0.1064
     16 N          19.6710   12.8210   33.1670 N.1     1  LIG1       -0.1906
     17 N          21.4150    6.6270   31.2770 N.am    1  LIG1       -0.2700
     18 C          20.7990    5.4740   31.0440 C.2     1  LIG1        0.2227
     19 O          19.6160    5.2720   31.3030 O.2     1  LIG1       -0.2751
     20 C          21.6200    4.4090   30.3250 C.3     1  LIG1        0.0530
     21 C          22.9820    4.1290   30.9580 C.ar    1  LIG1        0.0065
     22 C          24.0820    4.9600   30.6890 C.ar    1  LIG1        0.1239
     23 O          23.8690    6.0490   29.8630 O.3     1  LIG1       -0.4948
     24 C          24.9420    6.9460   29.5870 C.3     1  LIG1        0.0788
     25 C          25.3200    4.6480   31.2680 C.ar    1  LIG1       -0.0162
     26 C          25.4500    3.5510   32.1200 C.ar    1  LIG1       -0.0165
     27 C          24.3620    2.7260   32.3920 C.ar    1  LIG1        0.1206
     28 C          23.1280    3.0230   31.8010 C.ar    1  LIG1       -0.0129
     29 O          24.5820    1.6650   33.2460 O.3     1  LIG1       -0.4951
     30 C          23.6520    0.5850   33.2550 C.3     1  LIG1        0.0788
     31 H          20.6220   13.4450   28.9240 H       1  LIG1        0.0464
     32 H          20.9240   13.2060   30.6600 H       1  LIG1        0.0464
     33 H          21.0980   14.8220   29.9580 H       1  LIG1        0.0464
     34 H          22.1220   11.3400   28.5830 H       1  LIG1        0.0534
     35 H          23.8610   11.4530   28.4150 H       1  LIG1        0.0534
     36 H          23.4140    9.7840   30.1200 H       1  LIG1        0.0713
     37 H          24.1560   11.1350   30.8980 H       1  LIG1        0.0713
     38 H          19.1830    7.1220   32.8690 H       1  LIG1        0.0671
     39 H          17.9080   10.2800   33.9500 H       1  LIG1        0.1424
     40 H          17.7980    8.5270   34.0310 H       1  LIG1        0.1424
     41 H          22.3650    6.7220   30.9520 H       1  LIG1        0.1562
     42 H          21.0530    3.4880   30.2400 H       1  LIG1        0.0408
     43 H          21.7620    4.7820   29.3170 H       1  LIG1        0.0408
     44 H          25.7710    6.4420   29.0870 H       1  LIG1        0.0660
     45 H          24.5890    7.7310   28.9190 H       1  LIG1        0.0660
     46 H          25.3080    7.4300   30.4930 H       1  LIG1        0.0660
     47 H          26.1940    5.2500   31.0720 H       1  LIG1        0.0655
     48 H          26.4050    3.3250   32.5720 H       1  LIG1        0.0655
     49 H          22.2760    2.3890   31.9880 H       1  LIG1        0.0658
     50 H          24.0230   -0.2000   33.9140 H       1  LIG1        0.0660
     51 H          22.6720    0.8800   33.6280 H       1  LIG1        0.0660
     52 H          23.5370    0.1480   32.2630 H       1  LIG1        0.0660
@<TRIPOS>BOND
     1     1     2    1
     2     1    31    1
     3     1    32    1
     4     1    33    1
     5     2     3    2
     6     2     4    2
     7     2     5    1
     8     5     6    1
     9     5    34    1
    10     5    35    1
    11     6     7    1
    12     6    36    1
    13     6    37    1
    14     7     8    1
    15     8    14   ar
    16     8     9   ar
    17     9    10   ar
    18    10    11   ar
    19    10    17    1
    20    11    12   ar
    21    11    38    1
    22    12    13    1
    23    12    14   ar
    24    13    39    1
    25    13    40    1
    26    14    15    1
    27    15    16    3
    28    17    18   am
    29    17    41    1
    30    18    19    2
    31    18    20    1
    32    20    21    1
    33    20    42    1
    34    20    43    1
    35    21    28   ar
    36    21    22   ar
    37    22    23    1
    38    22    25   ar
    39    23    24    1
    40    24    44    1
    41    24    45    1
    42    24    46    1
    43    25    26   ar
    44    25    47    1
    45    26    27   ar
    46    26    48    1
    47    27    28   ar
    48    27    29    1
    49    28    49    1
    50    29    30    1
    51    30    50    1
    52    30    51    1
    53    30    52    1
