@<TRIPOS>MOLECULE
lig_18630-1
 41 42 0 0 0
SMALL
GASTEIGER

@<TRIPOS>ATOM
      1 C          24.0210   12.2420   30.2760 C.3     1  LIG1       -0.0306
      2 C          23.2930   10.9220   30.5380 C.3     1  LIG1        0.0884
      3 O          22.1430   11.2080   31.3310 O.3     1  LIG1       -0.4757
      4 C          21.3310   10.1710   31.7580 C.ar    1  LIG1        0.2362
      5 N          21.6810    8.9090   31.3860 N.ar    1  LIG1       -0.1966
      6 C          20.8900    7.8930   31.7600 C.ar    1  LIG1        0.1305
      7 C          19.7540    8.0600   32.5350 C.ar    1  LIG1        0.0007
      8 C          19.4030    9.3420   32.9180 C.ar    1  LIG1        0.0506
      9 N          18.2460    9.4400   33.6790 N.pl3   1  LIG1       -0.3567
     10 C          20.1940   10.4360   32.5290 C.ar    1  LIG1        0.1337
     11 C          19.8750   11.8150   32.8830 C.1     1  LIG1        0.1064
     12 N          19.6300   12.9120   33.1600 N.1     1  LIG1       -0.1906
     13 N          21.3870    6.6850   31.3200 N.am    1  LIG1       -0.2700
     14 C          20.7630    5.5180   31.1290 C.2     1  LIG1        0.2226
     15 O          19.5490    5.3720   31.2620 O.2     1  LIG1       -0.2751
     16 C          21.6080    4.3050   30.7110 C.3     1  LIG1        0.0495
     17 C          23.1040    4.5840   30.5580 C.ar    1  LIG1       -0.0386
     18 C          24.0150    4.0450   31.4690 C.ar    1  LIG1       -0.0579
     19 C          25.3760    4.3280   31.3490 C.ar    1  LIG1       -0.0586
     20 C          25.8350    5.1530   30.3200 C.ar    1  LIG1       -0.0504
     21 C          27.3130    5.4670   30.1980 C.3     1  LIG1       -0.0397
     22 C          24.9280    5.6840   29.4010 C.ar    1  LIG1       -0.0586
     23 C          23.5680    5.4010   29.5200 C.ar    1  LIG1       -0.0579
     24 H          24.9130   12.0840   29.6700 H       1  LIG1        0.0262
     25 H          23.3750   12.9410   29.7440 H       1  LIG1        0.0262
     26 H          24.3250   12.7140   31.2100 H       1  LIG1        0.0262
     27 H          22.9980   10.4590   29.5940 H       1  LIG1        0.0694
     28 H          23.9580   10.2280   31.0570 H       1  LIG1        0.0694
     29 H          19.1520    7.2180   32.8340 H       1  LIG1        0.0671
     30 H          17.7760    8.5960   33.9950 H       1  LIG1        0.1424
     31 H          17.8730   10.3510   33.9370 H       1  LIG1        0.1424
     32 H          22.3720    6.7300   31.1260 H       1  LIG1        0.1562
     33 H          21.4430    3.5140   31.4420 H       1  LIG1        0.0407
     34 H          21.2200    3.9320   29.7670 H       1  LIG1        0.0407
     35 H          23.6740    3.4070   32.2730 H       1  LIG1        0.0620
     36 H          26.0730    3.9080   32.0600 H       1  LIG1        0.0620
     37 H          27.8100    4.7110   29.5900 H       1  LIG1        0.0278
     38 H          27.4730    6.4410   29.7320 H       1  LIG1        0.0278
     39 H          27.7940    5.4910   31.1770 H       1  LIG1        0.0278
     40 H          25.2770    6.3170   28.5970 H       1  LIG1        0.0620
     41 H          22.8720    5.8250   28.8100 H       1  LIG1        0.0620
@<TRIPOS>BOND
     1     1     2    1
     2     1    24    1
     3     1    25    1
     4     1    26    1
     5     2     3    1
     6     2    27    1
     7     2    28    1
     8     3     4    1
     9     4    10   ar
    10     4     5   ar
    11     5     6   ar
    12     6     7   ar
    13     6    13    1
    14     7     8   ar
    15     7    29    1
    16     8     9    1
    17     8    10   ar
    18     9    30    1
    19     9    31    1
    20    10    11    1
    21    11    12    3
    22    13    14   am
    23    13    32    1
    24    14    15    2
    25    14    16    1
    26    16    17    1
    27    16    33    1
    28    16    34    1
    29    17    23   ar
    30    17    18   ar
    31    18    19   ar
    32    18    35    1
    33    19    20   ar
    34    19    36    1
    35    20    21    1
    36    20    22   ar
    37    21    37    1
    38    21    38    1
    39    21    39    1
    40    22    23   ar
    41    22    40    1
    42    23    41    1
