@<TRIPOS>MOLECULE
lig_18629-1
 41 42 0 0 0
SMALL
GASTEIGER

@<TRIPOS>ATOM
      1 C          24.0510   12.2020   30.2640 C.3     1  LIG1       -0.0306
      2 C          23.3160   10.8860   30.5330 C.3     1  LIG1        0.0884
      3 O          22.1660   11.1830   31.3210 O.3     1  LIG1       -0.4757
      4 C          21.3480   10.1520   31.7510 C.ar    1  LIG1        0.2362
      5 N          21.6920    8.8870   31.3850 N.ar    1  LIG1       -0.1966
      6 C          20.8970    7.8770   31.7650 C.ar    1  LIG1        0.1305
      7 C          19.7610    8.0530   32.5390 C.ar    1  LIG1        0.0007
      8 C          19.4160    9.3370   32.9150 C.ar    1  LIG1        0.0506
      9 N          18.2590    9.4440   33.6760 N.pl3   1  LIG1       -0.3567
     10 C          20.2110   10.4260   32.5220 C.ar    1  LIG1        0.1337
     11 C          19.8990   11.8070   32.8720 C.1     1  LIG1        0.1064
     12 N          19.6590   12.9060   33.1460 N.1     1  LIG1       -0.1906
     13 N          21.3870    6.6640   31.3300 N.am    1  LIG1       -0.2700
     14 C          20.7490    5.5080   31.1220 C.2     1  LIG1        0.2226
     15 O          19.5320    5.3800   31.2430 O.2     1  LIG1       -0.2751
     16 C          21.5760    4.2860   30.6940 C.3     1  LIG1        0.0495
     17 C          23.0910    4.4910   30.6830 C.ar    1  LIG1       -0.0384
     18 C          23.6890    5.3700   29.7690 C.ar    1  LIG1       -0.0552
     19 C          25.0670    5.5920   29.8020 C.ar    1  LIG1       -0.0502
     20 C          25.7100    6.5800   28.8490 C.3     1  LIG1       -0.0397
     21 C          25.8570    4.9020   30.7230 C.ar    1  LIG1       -0.0588
     22 C          25.2700    4.0090   31.6200 C.ar    1  LIG1       -0.0612
     23 C          23.8910    3.8070   31.6030 C.ar    1  LIG1       -0.0581
     24 H          24.9430   12.0350   29.6610 H       1  LIG1        0.0262
     25 H          23.4100   12.8990   29.7240 H       1  LIG1        0.0262
     26 H          24.3550   12.6790   31.1950 H       1  LIG1        0.0262
     27 H          23.0220   10.4180   29.5910 H       1  LIG1        0.0694
     28 H          23.9770   10.1940   31.0580 H       1  LIG1        0.0694
     29 H          19.1560    7.2140   32.8420 H       1  LIG1        0.0671
     30 H          17.7830    8.6040   33.9930 H       1  LIG1        0.1424
     31 H          17.8900   10.3570   33.9300 H       1  LIG1        0.1424
     32 H          22.3760    6.6960   31.1560 H       1  LIG1        0.1562
     33 H          21.3190    3.4660   31.3620 H       1  LIG1        0.0407
     34 H          21.2480    3.9880   29.7030 H       1  LIG1        0.0407
     35 H          23.0790    5.8960   29.0480 H       1  LIG1        0.0623
     36 H          24.9880    7.3050   28.4730 H       1  LIG1        0.0278
     37 H          26.5050    7.1380   29.3470 H       1  LIG1        0.0278
     38 H          26.1450    6.0540   27.9990 H       1  LIG1        0.0278
     39 H          26.9250    5.0640   30.7500 H       1  LIG1        0.0620
     40 H          25.8860    3.4780   32.3330 H       1  LIG1        0.0618
     41 H          23.4490    3.1150   32.3060 H       1  LIG1        0.0620
@<TRIPOS>BOND
     1     1     2    1
     2     1    24    1
     3     1    25    1
     4     1    26    1
     5     2     3    1
     6     2    27    1
     7     2    28    1
     8     3     4    1
     9     4    10   ar
    10     4     5   ar
    11     5     6   ar
    12     6     7   ar
    13     6    13    1
    14     7     8   ar
    15     7    29    1
    16     8     9    1
    17     8    10   ar
    18     9    30    1
    19     9    31    1
    20    10    11    1
    21    11    12    3
    22    13    14   am
    23    13    32    1
    24    14    15    2
    25    14    16    1
    26    16    17    1
    27    16    33    1
    28    16    34    1
    29    17    23   ar
    30    17    18   ar
    31    18    19   ar
    32    18    35    1
    33    19    20    1
    34    19    21   ar
    35    20    36    1
    36    20    37    1
    37    20    38    1
    38    21    22   ar
    39    21    39    1
    40    22    23   ar
    41    22    40    1
    42    23    41    1
