@<TRIPOS>MOLECULE
lig_18631-1
 42 43 0 0 0
SMALL
GASTEIGER

@<TRIPOS>ATOM
      1 C          24.0760   12.4050   30.2450 C.3     1  LIG1       -0.0306
      2 C          23.3420   11.0800   30.4650 C.3     1  LIG1        0.0884
      3 O          22.2050   11.3420   31.2810 O.3     1  LIG1       -0.4757
      4 C          21.4060   10.2920   31.7000 C.ar    1  LIG1        0.2362
      5 N          21.7490    9.0410   31.2880 N.ar    1  LIG1       -0.1966
      6 C          20.9740    8.0120   31.6610 C.ar    1  LIG1        0.1305
      7 C          19.8650    8.1560   32.4820 C.ar    1  LIG1        0.0007
      8 C          19.5170    9.4280   32.8980 C.ar    1  LIG1        0.0506
      9 N          18.3780    9.5090   33.6920 N.pl3   1  LIG1       -0.3567
     10 C          20.2860   10.5350   32.5030 C.ar    1  LIG1        0.1337
     11 C          19.9580   11.9050   32.8780 C.1     1  LIG1        0.1064
     12 N          19.7040   12.9960   33.1700 N.1     1  LIG1       -0.1906
     13 N          21.4330    6.8280   31.1200 N.am    1  LIG1       -0.2700
     14 C          20.8530    5.6280   31.0360 C.2     1  LIG1        0.2227
     15 O          19.7240    5.3670   31.4480 O.2     1  LIG1       -0.2751
     16 C          21.6450    4.5580   30.2940 C.3     1  LIG1        0.0529
     17 C          23.0460    4.3200   30.8550 C.ar    1  LIG1        0.0030
     18 C          24.1120    5.1700   30.5130 C.ar    1  LIG1        0.1237
     19 O          23.8320    6.2510   29.6970 O.3     1  LIG1       -0.4948
     20 C          24.8030    7.2850   29.5520 C.3     1  LIG1        0.0788
     21 C          25.3920    4.8830   31.0090 C.ar    1  LIG1       -0.0197
     22 C          25.6010    3.7980   31.8590 C.ar    1  LIG1       -0.0583
     23 C          24.5320    2.9790   32.2140 C.ar    1  LIG1       -0.0613
     24 C          23.2600    3.2340   31.7090 C.ar    1  LIG1       -0.0546
     25 H          24.9600   12.2660   29.6240 H       1  LIG1        0.0262
     26 H          23.4280   13.1270   29.7470 H       1  LIG1        0.0262
     27 H          24.3910   12.8400   31.1930 H       1  LIG1        0.0262
     28 H          23.0340   10.6530   29.5080 H       1  LIG1        0.0694
     29 H          24.0110   10.3650   30.9500 H       1  LIG1        0.0694
     30 H          19.2720    7.3090   32.7810 H       1  LIG1        0.0671
     31 H          17.8990    8.6600   33.9760 H       1  LIG1        0.1424
     32 H          17.9920   10.4140   33.9480 H       1  LIG1        0.1424
     33 H          22.3440    6.9280   30.6980 H       1  LIG1        0.1562
     34 H          21.0870    3.6240   30.2720 H       1  LIG1        0.0408
     35 H          21.7210    4.9000   29.2670 H       1  LIG1        0.0408
     36 H          25.0950    7.7040   30.5160 H       1  LIG1        0.0660
     37 H          25.6930    6.9310   29.0290 H       1  LIG1        0.0660
     38 H          24.3780    8.0950   28.9600 H       1  LIG1        0.0660
     39 H          26.2390    5.4990   30.7480 H       1  LIG1        0.0654
     40 H          26.5900    3.5910   32.2420 H       1  LIG1        0.0619
     41 H          24.6930    2.1320   32.8680 H       1  LIG1        0.0618
     42 H          22.4450    2.5730   31.9710 H       1  LIG1        0.0622
@<TRIPOS>BOND
     1     1     2    1
     2     1    25    1
     3     1    26    1
     4     1    27    1
     5     2     3    1
     6     2    28    1
     7     2    29    1
     8     3     4    1
     9     4    10   ar
    10     4     5   ar
    11     5     6   ar
    12     6     7   ar
    13     6    13    1
    14     7     8   ar
    15     7    30    1
    16     8     9    1
    17     8    10   ar
    18     9    31    1
    19     9    32    1
    20    10    11    1
    21    11    12    3
    22    13    14   am
    23    13    33    1
    24    14    15    2
    25    14    16    1
    26    16    17    1
    27    16    34    1
    28    16    35    1
    29    17    24   ar
    30    17    18   ar
    31    18    19    1
    32    18    21   ar
    33    19    20    1
    34    20    36    1
    35    20    37    1
    36    20    38    1
    37    21    22   ar
    38    21    39    1
    39    22    23   ar
    40    22    40    1
    41    23    24   ar
    42    23    41    1
    43    24    42    1
