@<TRIPOS>MOLECULE
lig_18625-1
 38 39 0 0 0
SMALL
GASTEIGER

@<TRIPOS>ATOM
      1 C          23.9840   12.4670   30.2870 C.3     1  LIG1       -0.0306
      2 C          23.2740   11.1270   30.4970 C.3     1  LIG1        0.0884
      3 O          22.1370   11.3620   31.3250 O.3     1  LIG1       -0.4757
      4 C          21.3540   10.2950   31.7330 C.ar    1  LIG1        0.2362
      5 N          21.7200    9.0560   31.3100 N.ar    1  LIG1       -0.1966
      6 C          20.9620    8.0100   31.6660 C.ar    1  LIG1        0.1305
      7 C          19.8430    8.1240   32.4780 C.ar    1  LIG1        0.0007
      8 C          19.4700    9.3870   32.9060 C.ar    1  LIG1        0.0506
      9 N          18.3210    9.4440   33.6870 N.pl3   1  LIG1       -0.3567
     10 C          20.2250   10.5100   32.5300 C.ar    1  LIG1        0.1337
     11 C          19.8750   11.8720   32.9140 C.1     1  LIG1        0.1064
     12 N          19.6060   12.9580   33.2120 N.1     1  LIG1       -0.1906
     13 N          21.4570    6.8520   31.1050 N.am    1  LIG1       -0.2700
     14 C          20.9160    5.6360   31.0010 C.2     1  LIG1        0.2226
     15 O          19.8100    5.3230   31.4380 O.2     1  LIG1       -0.2751
     16 C          21.7260    4.6150   30.2080 C.3     1  LIG1        0.0508
     17 C          23.0590    4.2600   30.8640 C.ar    1  LIG1       -0.0203
     18 C          23.1400    3.3560   31.9370 C.ar    1  LIG1        0.0446
     19 CL         21.7340    2.5730   32.5720 Cl      1  LIG1       -0.0832
     20 C          24.3760    3.0740   32.5190 C.ar    1  LIG1       -0.0431
     21 C          25.5380    3.6730   32.0320 C.ar    1  LIG1       -0.0604
     22 C          25.4620    4.5660   30.9650 C.ar    1  LIG1       -0.0614
     23 C          24.2280    4.8610   30.3870 C.ar    1  LIG1       -0.0567
     24 H          24.8630   12.3480   29.6550 H       1  LIG1        0.0262
     25 H          23.3200   13.1840   29.8040 H       1  LIG1        0.0262
     26 H          24.3040   12.8940   31.2360 H       1  LIG1        0.0262
     27 H          22.9650   10.7060   29.5380 H       1  LIG1        0.0694
     28 H          23.9570   10.4180   30.9690 H       1  LIG1        0.0694
     29 H          19.2600    7.2630   32.7590 H       1  LIG1        0.0671
     30 H          17.9290   10.3430   33.9570 H       1  LIG1        0.1424
     31 H          17.8640    8.5870   33.9840 H       1  LIG1        0.1424
     32 H          22.3530    7.0200   30.6780 H       1  LIG1        0.1562
     33 H          21.1370    3.7120   30.0600 H       1  LIG1        0.0407
     34 H          21.8840    5.0370   29.2200 H       1  LIG1        0.0407
     35 H          24.4290    2.3850   33.3490 H       1  LIG1        0.0632
     36 H          26.4940    3.4490   32.4840 H       1  LIG1        0.0618
     37 H          26.3590    5.0420   30.5920 H       1  LIG1        0.0618
     38 H          24.1840    5.5760   29.5770 H       1  LIG1        0.0621
@<TRIPOS>BOND
     1     1     2    1
     2     1    24    1
     3     1    25    1
     4     1    26    1
     5     2     3    1
     6     2    27    1
     7     2    28    1
     8     3     4    1
     9     4    10   ar
    10     4     5   ar
    11     5     6   ar
    12     6     7   ar
    13     6    13    1
    14     7     8   ar
    15     7    29    1
    16     8     9    1
    17     8    10   ar
    18     9    30    1
    19     9    31    1
    20    10    11    1
    21    11    12    3
    22    13    14   am
    23    13    32    1
    24    14    15    2
    25    14    16    1
    26    16    17    1
    27    16    33    1
    28    16    34    1
    29    17    23   ar
    30    17    18   ar
    31    18    19    1
    32    18    20   ar
    33    20    21   ar
    34    20    35    1
    35    21    22   ar
    36    21    36    1
    37    22    23   ar
    38    22    37    1
    39    23    38    1
