@<TRIPOS>MOLECULE
lig_18639-1
 48 49 0 0 0
SMALL
GASTEIGER

@<TRIPOS>ATOM
      1 C          24.2760   10.8580   30.5310 C.3     1  LIG1       -0.0306
      2 C          22.8720   11.1950   30.0240 C.3     1  LIG1        0.0884
      3 O          21.9940   11.3730   31.1350 O.3     1  LIG1       -0.4757
      4 C          21.3000   10.2940   31.6580 C.ar    1  LIG1        0.2362
      5 N          21.6710    9.0500   31.2480 N.ar    1  LIG1       -0.1966
      6 C          20.9500    8.0000   31.6670 C.ar    1  LIG1        0.1305
      7 C          19.8660    8.1180   32.5260 C.ar    1  LIG1        0.0007
      8 C          19.4930    9.3840   32.9420 C.ar    1  LIG1        0.0506
      9 N          18.3660    9.4440   33.7520 N.pl3   1  LIG1       -0.3567
     10 C          20.2180   10.5090   32.5170 C.ar    1  LIG1        0.1337
     11 C          19.8680   11.8730   32.8960 C.1     1  LIG1        0.1064
     12 N          19.5990   12.9600   33.1900 N.1     1  LIG1       -0.1906
     13 N          21.4270    6.8290   31.1140 N.am    1  LIG1       -0.2700
     14 C          20.8580    5.6230   31.0220 C.2     1  LIG1        0.2227
     15 O          19.7390    5.3450   31.4470 O.2     1  LIG1       -0.2751
     16 C          21.6500    4.5670   30.2610 C.3     1  LIG1        0.0530
     17 C          23.0150    4.2720   30.8750 C.ar    1  LIG1        0.0069
     18 C          24.1180    5.0810   30.5810 C.ar    1  LIG1        0.1304
     19 O          23.9100    6.1670   29.7480 O.3     1  LIG1       -0.4946
     20 C          24.9550    7.1170   29.5480 C.3     1  LIG1        0.0788
     21 C          25.3570    4.7550   31.1460 C.ar    1  LIG1        0.0613
     22 C          25.5080    3.6740   32.0310 C.ar    1  LIG1        0.3177
     23 N          26.8470    3.4090   32.6230 N.pl3   1  LIG1        0.0835
     24 O          26.9380    2.7390   33.6470 O.co2   1  LIG1       -0.5759
     25 O          27.8300    3.9020   32.0770 O.2     1  LIG1        0.0416
     26 C          24.3860    2.8730   32.3280 C.ar    1  LIG1        0.1977
     27 C          23.1530    3.1840   31.7380 C.ar    1  LIG1       -0.0061
     28 O          24.5280    1.8160   33.2070 O.3     1  LIG1       -0.4889
     29 C          23.6290    0.7110   33.1400 C.3     1  LIG1        0.0791
     30 H          24.9810   10.7710   29.7050 H       1  LIG1        0.0262
     31 H          24.6270   11.6410   31.2030 H       1  LIG1        0.0262
     32 H          24.2800    9.9170   31.0790 H       1  LIG1        0.0262
     33 H          22.9070   12.1390   29.4790 H       1  LIG1        0.0694
     34 H          22.5080   10.4570   29.3050 H       1  LIG1        0.0694
     35 H          19.3080    7.2560   32.8490 H       1  LIG1        0.0671
     36 H          17.8990    8.5880   34.0370 H       1  LIG1        0.1424
     37 H          17.9570   10.3440   33.9930 H       1  LIG1        0.1424
     38 H          22.3300    6.9540   30.6850 H       1  LIG1        0.1562
     39 H          21.0730    3.6500   30.1770 H       1  LIG1        0.0408
     40 H          21.7740    4.9480   29.2520 H       1  LIG1        0.0408
     41 H          25.2820    7.5650   30.4870 H       1  LIG1        0.0660
     42 H          25.8130    6.6720   29.0420 H       1  LIG1        0.0660
     43 H          24.5870    7.9250   28.9150 H       1  LIG1        0.0660
     44 H          26.2200    5.3580   30.9140 H       1  LIG1        0.0724
     45 H          22.2860    2.5790   31.9490 H       1  LIG1        0.0660
     46 H          23.9630   -0.0600   33.8340 H       1  LIG1        0.0660
     47 H          22.6110    0.9730   33.4250 H       1  LIG1        0.0660
     48 H          23.6160    0.2650   32.1470 H       1  LIG1        0.0660
@<TRIPOS>BOND
     1     1     2    1
     2     1    30    1
     3     1    31    1
     4     1    32    1
     5     2     3    1
     6     2    33    1
     7     2    34    1
     8     3     4    1
     9     4    10   ar
    10     4     5   ar
    11     5     6   ar
    12     6     7   ar
    13     6    13    1
    14     7     8   ar
    15     7    35    1
    16     8     9    1
    17     8    10   ar
    18     9    36    1
    19     9    37    1
    20    10    11    1
    21    11    12    3
    22    13    14   am
    23    13    38    1
    24    14    15    2
    25    14    16    1
    26    16    17    1
    27    16    39    1
    28    16    40    1
    29    17    27   ar
    30    17    18   ar
    31    18    19    1
    32    18    21   ar
    33    19    20    1
    34    20    41    1
    35    20    42    1
    36    20    43    1
    37    21    22   ar
    38    21    44    1
    39    22    23    1
    40    22    26   ar
    41    23    24    1
    42    23    25    2
    43    26    27   ar
    44    26    28    1
    45    27    45    1
    46    28    29    1
    47    29    46    1
    48    29    47    1
    49    29    48    1
