@<TRIPOS>MOLECULE
lig_18632-1
 42 43 0 0 0
SMALL
GASTEIGER

@<TRIPOS>ATOM
      1 C          22.8350   10.6130   29.0690 C.3     1  LIG1       -0.0306
      2 C          23.2560   10.8540   30.5240 C.3     1  LIG1        0.0884
      3 O          22.1210   11.1380   31.3460 O.3     1  LIG1       -0.4757
      4 C          21.3030   10.1140   31.7940 C.ar    1  LIG1        0.2362
      5 N          21.6560    8.8450   31.4620 N.ar    1  LIG1       -0.1966
      6 C          20.8560    7.8400   31.8370 C.ar    1  LIG1        0.1305
      7 C          19.7060    8.0210   32.5850 C.ar    1  LIG1        0.0007
      8 C          19.3550    9.3100   32.9400 C.ar    1  LIG1        0.0506
      9 N          18.1850    9.4220   33.6780 N.pl3   1  LIG1       -0.3567
     10 C          20.1560   10.3960   32.5460 C.ar    1  LIG1        0.1337
     11 C          19.8390   11.7810   32.8750 C.1     1  LIG1        0.1064
     12 N          19.5960   12.8840   33.1330 N.1     1  LIG1       -0.1906
     13 N          21.3590    6.6310   31.4180 N.am    1  LIG1       -0.2700
     14 C          20.7260    5.4860   31.1540 C.2     1  LIG1        0.2226
     15 O          19.5060    5.3620   31.2300 O.2     1  LIG1       -0.2751
     16 C          21.5720    4.2760   30.7230 C.3     1  LIG1        0.0496
     17 C          23.0670    4.5580   30.5720 C.ar    1  LIG1       -0.0352
     18 C          23.9660    4.1690   31.5710 C.ar    1  LIG1       -0.0163
     19 C          25.3370    4.3580   31.4210 C.ar    1  LIG1        0.1204
     20 O          26.1330    3.8950   32.4460 O.3     1  LIG1       -0.4951
     21 C          27.5410    4.0840   32.3620 C.3     1  LIG1        0.0788
     22 C          25.8100    4.9780   30.2550 C.ar    1  LIG1       -0.0199
     23 C          24.9200    5.3920   29.2620 C.ar    1  LIG1       -0.0580
     24 C          23.5510    5.1790   29.4200 C.ar    1  LIG1       -0.0579
     25 H          23.7030   10.4790   28.4250 H       1  LIG1        0.0262
     26 H          22.2150    9.7220   28.9750 H       1  LIG1        0.0262
     27 H          22.2620   11.4570   28.6850 H       1  LIG1        0.0262
     28 H          23.8510   10.0250   30.9150 H       1  LIG1        0.0694
     29 H          23.9090   11.7270   30.5640 H       1  LIG1        0.0694
     30 H          19.0960    7.1840   32.8820 H       1  LIG1        0.0671
     31 H          17.7190    8.5830   34.0120 H       1  LIG1        0.1424
     32 H          17.8210   10.3380   33.9320 H       1  LIG1        0.1424
     33 H          22.3510    6.6750   31.2620 H       1  LIG1        0.1562
     34 H          21.4060    3.4780   31.4450 H       1  LIG1        0.0407
     35 H          21.1890    3.9160   29.7720 H       1  LIG1        0.0407
     36 H          23.6110    3.6890   32.4710 H       1  LIG1        0.0657
     37 H          28.0180    3.6450   33.2380 H       1  LIG1        0.0660
     38 H          27.9620    3.5930   31.4850 H       1  LIG1        0.0660
     39 H          27.8010    5.1430   32.3420 H       1  LIG1        0.0660
     40 H          26.8650    5.1410   30.1020 H       1  LIG1        0.0654
     41 H          25.2920    5.8690   28.3660 H       1  LIG1        0.0619
     42 H          22.8720    5.4960   28.6400 H       1  LIG1        0.0620
@<TRIPOS>BOND
     1     1     2    1
     2     1    25    1
     3     1    26    1
     4     1    27    1
     5     2     3    1
     6     2    28    1
     7     2    29    1
     8     3     4    1
     9     4    10   ar
    10     4     5   ar
    11     5     6   ar
    12     6     7   ar
    13     6    13    1
    14     7     8   ar
    15     7    30    1
    16     8     9    1
    17     8    10   ar
    18     9    31    1
    19     9    32    1
    20    10    11    1
    21    11    12    3
    22    13    14   am
    23    13    33    1
    24    14    15    2
    25    14    16    1
    26    16    17    1
    27    16    34    1
    28    16    35    1
    29    17    24   ar
    30    17    18   ar
    31    18    19   ar
    32    18    36    1
    33    19    20    1
    34    19    22   ar
    35    20    21    1
    36    21    37    1
    37    21    38    1
    38    21    39    1
    39    22    23   ar
    40    22    40    1
    41    23    24   ar
    42    23    41    1
    43    24    42    1
