lig_18625-1
     RDKit          3D

 38 39  0  0  0  0  0  0  0  0999 V2000
   23.9840   12.4670   30.2870 C   0  0  0  0  0  0  0  0  0  0  0  0
   23.2740   11.1270   30.4970 C   0  0  0  0  0  0  0  0  0  0  0  0
   22.1370   11.3620   31.3250 O   0  0  0  0  0  0  0  0  0  0  0  0
   21.3540   10.2950   31.7330 C   0  0  0  0  0  0  0  0  0  0  0  0
   21.7200    9.0560   31.3100 N   0  0  0  0  0  0  0  0  0  0  0  0
   20.9620    8.0100   31.6660 C   0  0  0  0  0  0  0  0  0  0  0  0
   19.8430    8.1240   32.4780 C   0  0  0  0  0  0  0  0  0  0  0  0
   19.4700    9.3870   32.9060 C   0  0  0  0  0  0  0  0  0  0  0  0
   18.3210    9.4440   33.6870 N   0  0  0  0  0  0  0  0  0  0  0  0
   20.2250   10.5100   32.5300 C   0  0  0  0  0  0  0  0  0  0  0  0
   19.8750   11.8720   32.9140 C   0  0  0  0  0  0  0  0  0  0  0  0
   19.6060   12.9580   33.2120 N   0  0  0  0  0  0  0  0  0  0  0  0
   21.4570    6.8520   31.1050 N   0  0  0  0  0  0  0  0  0  0  0  0
   20.9160    5.6360   31.0010 C   0  0  0  0  0  0  0  0  0  0  0  0
   19.8100    5.3230   31.4380 O   0  0  0  0  0  0  0  0  0  0  0  0
   21.7260    4.6150   30.2080 C   0  0  0  0  0  0  0  0  0  0  0  0
   23.0590    4.2600   30.8640 C   0  0  0  0  0  0  0  0  0  0  0  0
   23.1400    3.3560   31.9370 C   0  0  0  0  0  0  0  0  0  0  0  0
   21.7340    2.5730   32.5720 Cl  0  0  0  0  0  0  0  0  0  0  0  0
   24.3760    3.0740   32.5190 C   0  0  0  0  0  0  0  0  0  0  0  0
   25.5380    3.6730   32.0320 C   0  0  0  0  0  0  0  0  0  0  0  0
   25.4620    4.5660   30.9650 C   0  0  0  0  0  0  0  0  0  0  0  0
   24.2280    4.8610   30.3870 C   0  0  0  0  0  0  0  0  0  0  0  0
   24.8630   12.3480   29.6550 H   0  0  0  0  0  0  0  0  0  0  0  0
   23.3200   13.1840   29.8040 H   0  0  0  0  0  0  0  0  0  0  0  0
   24.3040   12.8940   31.2360 H   0  0  0  0  0  0  0  0  0  0  0  0
   22.9650   10.7060   29.5380 H   0  0  0  0  0  0  0  0  0  0  0  0
   23.9570   10.4180   30.9690 H   0  0  0  0  0  0  0  0  0  0  0  0
   19.2600    7.2630   32.7590 H   0  0  0  0  0  0  0  0  0  0  0  0
   17.9290   10.3430   33.9570 H   0  0  0  0  0  0  0  0  0  0  0  0
   17.8640    8.5870   33.9840 H   0  0  0  0  0  0  0  0  0  0  0  0
   22.3530    7.0200   30.6780 H   0  0  0  0  0  0  0  0  0  0  0  0
   21.1370    3.7120   30.0600 H   0  0  0  0  0  0  0  0  0  0  0  0
   21.8840    5.0370   29.2200 H   0  0  0  0  0  0  0  0  0  0  0  0
   24.4290    2.3850   33.3490 H   0  0  0  0  0  0  0  0  0  0  0  0
   26.4940    3.4490   32.4840 H   0  0  0  0  0  0  0  0  0  0  0  0
   26.3590    5.0420   30.5920 H   0  0  0  0  0  0  0  0  0  0  0  0
   24.1840    5.5760   29.5770 H   0  0  0  0  0  0  0  0  0  0  0  0
  1  2  1  0
  1 24  1  0
  1 25  1  0
  1 26  1  0
  2  3  1  0
  2 27  1  0
  2 28  1  0
  3  4  1  0
  4 10  2  0
  4  5  1  0
  5  6  2  0
  6  7  1  0
  6 13  1  0
  7  8  2  0
  7 29  1  0
  8  9  1  0
  8 10  1  0
  9 30  1  0
  9 31  1  0
 10 11  1  0
 11 12  3  0
 13 14  1  0
 13 32  1  0
 14 15  2  0
 14 16  1  0
 16 17  1  0
 16 33  1  0
 16 34  1  0
 17 23  1  0
 17 18  2  0
 18 19  1  0
 18 20  1  0
 20 21  2  0
 20 35  1  0
 21 22  1  0
 21 36  1  0
 22 23  2  0
 22 37  1  0
 23 38  1  0
M  END
$$$$
