lig_18627-1
     RDKit          3D

 38 39  0  0  0  0  0  0  0  0999 V2000
   24.0460   12.2310   30.2640 C   0  0  0  0  0  0  0  0  0  0  0  0
   23.3140   10.9120   30.5250 C   0  0  0  0  0  0  0  0  0  0  0  0
   22.1660   11.2000   31.3190 O   0  0  0  0  0  0  0  0  0  0  0  0
   21.3510   10.1660   31.7450 C   0  0  0  0  0  0  0  0  0  0  0  0
   21.6960    8.9020   31.3720 N   0  0  0  0  0  0  0  0  0  0  0  0
   20.9000    7.8900   31.7480 C   0  0  0  0  0  0  0  0  0  0  0  0
   19.7670    8.0630   32.5270 C   0  0  0  0  0  0  0  0  0  0  0  0
   19.4230    9.3450   32.9110 C   0  0  0  0  0  0  0  0  0  0  0  0
   18.2680    9.4490   33.6770 N   0  0  0  0  0  0  0  0  0  0  0  0
   20.2170   10.4360   32.5200 C   0  0  0  0  0  0  0  0  0  0  0  0
   19.9030   11.8150   32.8760 C   0  0  0  0  0  0  0  0  0  0  0  0
   19.6630   12.9130   33.1540 N   0  0  0  0  0  0  0  0  0  0  0  0
   21.3890    6.6800   31.3020 N   0  0  0  0  0  0  0  0  0  0  0  0
   20.7530    5.5180   31.1150 C   0  0  0  0  0  0  0  0  0  0  0  0
   19.5390    5.3840   31.2540 O   0  0  0  0  0  0  0  0  0  0  0  0
   21.5780    4.2950   30.6930 C   0  0  0  0  0  0  0  0  0  0  0  0
   23.0900    4.5080   30.6430 C   0  0  0  0  0  0  0  0  0  0  0  0
   23.6660    5.3060   29.6460 C   0  0  0  0  0  0  0  0  0  0  0  0
   25.0460    5.5100   29.6200 C   0  0  0  0  0  0  0  0  0  0  0  0
   25.8560    4.9160   30.5870 C   0  0  0  0  0  0  0  0  0  0  0  0
   27.5600    5.1730   30.5670 Cl  0  0  0  0  0  0  0  0  0  0  0  0
   25.2880    4.1160   31.5780 C   0  0  0  0  0  0  0  0  0  0  0  0
   23.9090    3.9120   31.6080 C   0  0  0  0  0  0  0  0  0  0  0  0
   24.9360   12.0710   29.6580 H   0  0  0  0  0  0  0  0  0  0  0  0
   23.4010   12.9310   29.7330 H   0  0  0  0  0  0  0  0  0  0  0  0
   24.3510   12.7020   31.1980 H   0  0  0  0  0  0  0  0  0  0  0  0
   23.0190   10.4500   29.5800 H   0  0  0  0  0  0  0  0  0  0  0  0
   23.9790   10.2160   31.0440 H   0  0  0  0  0  0  0  0  0  0  0  0
   19.1620    7.2240   32.8290 H   0  0  0  0  0  0  0  0  0  0  0  0
   17.7920    8.6080   33.9890 H   0  0  0  0  0  0  0  0  0  0  0  0
   17.8980   10.3610   33.9330 H   0  0  0  0  0  0  0  0  0  0  0  0
   22.3730    6.7240   31.1100 H   0  0  0  0  0  0  0  0  0  0  0  0
   21.3380    3.4830   31.3790 H   0  0  0  0  0  0  0  0  0  0  0  0
   21.2280    3.9760   29.7150 H   0  0  0  0  0  0  0  0  0  0  0  0
   23.0430    5.7720   28.8930 H   0  0  0  0  0  0  0  0  0  0  0  0
   25.4960    6.1270   28.8550 H   0  0  0  0  0  0  0  0  0  0  0  0
   25.9240    3.6580   32.3220 H   0  0  0  0  0  0  0  0  0  0  0  0
   23.4810    3.2860   32.3790 H   0  0  0  0  0  0  0  0  0  0  0  0
  1  2  1  0
  1 24  1  0
  1 25  1  0
  1 26  1  0
  2  3  1  0
  2 27  1  0
  2 28  1  0
  3  4  1  0
  4 10  2  0
  4  5  1  0
  5  6  2  0
  6  7  1  0
  6 13  1  0
  7  8  2  0
  7 29  1  0
  8  9  1  0
  8 10  1  0
  9 30  1  0
  9 31  1  0
 10 11  1  0
 11 12  3  0
 13 14  1  0
 13 32  1  0
 14 15  2  0
 14 16  1  0
 16 17  1  0
 16 33  1  0
 16 34  1  0
 17 23  1  0
 17 18  2  0
 18 19  1  0
 18 35  1  0
 19 20  2  0
 19 36  1  0
 20 21  1  0
 20 22  1  0
 22 23  2  0
 22 37  1  0
 23 38  1  0
M  END
$$$$
