lig_p38a_2m
                    3D
 Structure written by MMmdl.
 50 54  0  0  1  0            999 V2000
   34.5500   34.9800   21.1800 C   0  0  0  0  0  0
   34.0400   38.9800   23.7400 C   0  0  0  0  0  0
   34.8000   37.8100   21.4400 C   0  0  0  0  0  0
   35.2500   37.1300   20.2300 C   0  0  0  0  0  0
   34.3100   37.0400   22.5100 C   0  0  0  0  0  0
   34.8500   39.2100   21.6200 C   0  0  0  0  0  0
   35.1700   35.7800   20.1300 C   0  0  0  0  0  0
   34.4800   39.7900   22.7800 N   0  0  0  0  0  0
   34.3300   33.7800   21.0200 O   0  0  0  0  0  0
   34.2100   35.6200   22.3400 N   0  0  0  0  0  0
   33.9300   37.6500   23.6600 N   0  0  0  0  0  0
   33.6700   39.5700   24.9300 N   0  0  0  0  0  0
   35.7000   37.7400   19.4700 H   0  0  0  0  0  0
   35.2200   39.8600   20.8400 H   0  0  0  0  0  0
   33.7900   40.5700   24.9700 H   0  0  0  0  0  0
   33.6800   34.8400   23.4400 C   0  0  0  0  0  0
   34.1500   33.4200   23.5400 C   0  0  0  0  0  0
   32.7500   33.7200   23.0700 C   0  0  0  0  0  0
   33.4600   35.3500   24.4100 H   0  0  0  0  0  0
   34.8700   33.0900   22.7500 H   0  0  0  0  0  0
   34.2400   33.0000   24.5700 H   0  0  0  0  0  0
   32.5600   33.5900   21.9800 H   0  0  0  0  0  0
   31.9300   33.5000   23.8000 H   0  0  0  0  0  0
   31.1300   38.3200   27.4700 C   0  0  0  0  0  0
   31.6900   39.1300   26.3000 C   0  0  0  0  0  0
   33.1500   38.7500   26.0100 C   0  0  0  0  0  0
   34.0200   38.9200   27.2600 C   0  0  0  0  0  0
   33.4600   38.1100   28.4400 C   0  0  0  0  0  0
   32.0000   38.4900   28.7300 O   0  0  0  0  0  0
   31.0900   37.2400   27.1900 H   0  0  0  0  0  0
   30.0800   38.6300   27.6900 H   0  0  0  0  0  0
   31.6300   40.2200   26.5400 H   0  0  0  0  0  0
   31.0700   38.9700   25.3800 H   0  0  0  0  0  0
   33.2000   37.6900   25.6700 H   0  0  0  0  0  0
   35.0700   38.6100   27.0400 H   0  0  0  0  0  0
   34.0600   40.0000   27.5400 H   0  0  0  0  0  0
   33.5200   37.0200   28.1900 H   0  0  0  0  0  0
   34.0900   38.2700   29.3500 H   0  0  0  0  0  0
   35.6600   35.1800   19.0100 O   0  0  0  0  0  0
   37.2600   38.0600   16.4500 C   0  0  0  0  0  0
   38.0700   37.4700   17.4400 C   0  0  0  0  0  0
   37.5300   36.4900   18.3000 C   0  0  0  0  0  0
   36.1900   36.1200   18.1700 C   0  0  0  0  0  0
   35.3800   36.7100   17.1900 C   0  0  0  0  0  0
   35.9100   37.6800   16.3300 C   0  0  0  0  0  0
   37.7700   38.9800   15.6300 F   0  0  0  0  0  0
   39.1300   37.7600   17.5300 H   0  0  0  0  0  0
   38.3000   35.9300   19.2300 F   0  0  0  0  0  0
   34.3200   36.4100   17.0900 H   0  0  0  0  0  0
   35.2800   38.1400   15.5600 H   0  0  0  0  0  0
  1  7  1  0  0  0
  1  9  2  0  0  0
  1 10  1  0  0  0
  2  8  1  0  0  0
  2 11  2  0  0  0
  2 12  1  0  0  0
  3  4  1  0  0  0
  3  5  2  0  0  0
  3  6  1  0  0  0
  4  7  2  0  0  0
  4 13  1  0  0  0
  5 10  1  0  0  0
  5 11  1  0  0  0
  6  8  2  0  0  0
  6 14  1  0  0  0
  7 39  1  0  0  0
 10 16  1  0  0  0
 12 15  1  0  0  0
 12 26  1  0  0  0
 16 17  1  0  0  0
 16 18  1  0  0  0
 16 19  1  0  0  0
 17 18  1  0  0  0
 17 20  1  0  0  0
 17 21  1  0  0  0
 18 22  1  0  0  0
 18 23  1  0  0  0
 24 25  1  0  0  0
 24 29  1  0  0  0
 24 30  1  0  0  0
 24 31  1  0  0  0
 25 26  1  0  0  0
 25 32  1  0  0  0
 25 33  1  0  0  0
 26 27  1  0  0  0
 26 34  1  0  0  0
 27 28  1  0  0  0
 27 35  1  0  0  0
 27 36  1  0  0  0
 28 29  1  0  0  0
 28 37  1  0  0  0
 28 38  1  0  0  0
 39 43  1  0  0  0
 40 41  1  0  0  0
 40 45  2  0  0  0
 40 46  1  0  0  0
 41 42  2  0  0  0
 41 47  1  0  0  0
 42 43  1  0  0  0
 42 48  1  0  0  0
 43 44  2  0  0  0
 44 45  1  0  0  0
 44 49  1  0  0  0
 45 50  1  0  0  0
M  END
> <s_m_entry_id>
14

> <s_m_entry_name>
lig_p38a_2m.1

> <s_pdb_PDB_TITLE>
MX MODEL

> <i_pdb_PDB_Model>
1

> <r_pdb_PDB_CRYST1_a>
180.98

> <r_pdb_PDB_CRYST1_b>
151.4

> <r_pdb_PDB_CRYST1_c>
275.86

> <r_pdb_PDB_CRYST1_alpha>
90

> <r_pdb_PDB_CRYST1_beta>
90

> <r_pdb_PDB_CRYST1_gamma>
90

> <s_pdb_PDB_CRYST1_Space_Group>
P 1

> <i_pdb_PDB_CRYST1_z>
1

> <s_pdb_PDB_format_version>
3.0

> <s_m_Source_Path>
/users/home/dhahn3/projects/PLBenchmarks/PLBenchmarks/data/2019-12-09_p38/03_docked

> <s_m_Source_File>
lig_p38a_2m.pdb

> <i_m_Source_File_Index>
1

$$$$
