@<TRIPOS>MOLECULE
DAR-DIA-23aa0b97-20
 34 36 0 0 0
SMALL
GASTEIGER

@<TRIPOS>ATOM
      1 C          14.5035   -1.6332   23.3349 C.ar    1  UNL1       -0.0616
      2 C           3.8281    1.7710   20.0987 C.ar    1  UNL1       -0.0611
      3 C           4.4980    1.8697   21.3160 C.ar    1  UNL1       -0.0612
      4 C          13.9424   -0.7470   24.2544 C.ar    1  UNL1       -0.0600
      5 C          13.8698   -1.8655   22.1141 C.ar    1  UNL1       -0.0600
      6 C           4.5140    1.3625   18.9552 C.ar    1  UNL1       -0.0526
      7 C           5.8570    1.5604   21.3952 C.ar    1  UNL1       -0.0537
      8 C          12.7476   -0.0933   23.9532 C.ar    1  UNL1       -0.0405
      9 C          12.6750   -1.2117   21.8130 C.ar    1  UNL1       -0.0405
     10 C           6.6167    0.6349   17.9106 C.ar    1  UNL1        0.0353
     11 C           8.5522    0.4302   19.1300 C.ar    1  UNL1        0.0318
     12 C           5.8816    1.0486   19.0233 C.ar    1  UNL1        0.0005
     13 C           6.5634    1.1473   20.2537 C.ar    1  UNL1       -0.0114
     14 C           7.9259    0.8302   20.3006 C.ar    1  UNL1       -0.0128
     15 C          12.1139   -0.3256   22.7325 C.ar    1  UNL1        0.0334
     16 C           9.8614   -0.1219   21.6237 C.2     1  UNL1        0.2216
     17 C           8.7333    0.9035   21.5541 C.3     1  UNL1        0.0514
     18 N           7.9325    0.3243   17.9353 N.ar    1  UNL1       -0.2624
     19 N          10.9017    0.3379   22.4271 N.am    1  UNL1       -0.2852
     20 O           9.8011   -1.1918   21.0264 O.2     1  UNL1       -0.2751
     21 H          15.4343   -2.1418   23.5687 H       1  UNL1        0.0618
     22 H           2.7707    2.0122   20.0400 H       1  UNL1        0.0618
     23 H           3.9621    2.1878   22.2056 H       1  UNL1        0.0618
     24 H          14.4359   -0.5653   25.2045 H       1  UNL1        0.0618
     25 H          14.3076   -2.5548   21.3979 H       1  UNL1        0.0618
     26 H           3.9750    1.2907   18.0133 H       1  UNL1        0.0624
     27 H           6.3460    1.6496   22.3624 H       1  UNL1        0.0624
     28 H          12.3197    0.5953   24.6776 H       1  UNL1        0.0636
     29 H          12.1901   -1.4006   20.8584 H       1  UNL1        0.0636
     30 H           6.1525    0.5380   16.9329 H       1  UNL1        0.0836
     31 H           9.6073    0.1735   19.1161 H       1  UNL1        0.0832
     32 H           9.1762    1.9065   21.6647 H       1  UNL1        0.0408
     33 H           8.0847    0.7602   22.4333 H       1  UNL1        0.0408
     34 H          10.7756    1.2583   22.8432 H       1  UNL1        0.1548
@<TRIPOS>BOND
     1     1     4   ar
     2     1     5   ar
     3     2     3   ar
     4     2     6   ar
     5     3     7   ar
     6     4     8   ar
     7     5     9   ar
     8     6    12   ar
     9     7    13   ar
    10     8    15   ar
    11     9    15   ar
    12    10    12   ar
    13    10    18   ar
    14    11    14   ar
    15    11    18   ar
    16    12    13   ar
    17    13    14   ar
    18    14    17    1
    19    15    19    1
    20    16    17    1
    21    16    19   am
    22    16    20    2
    23     1    21    1
    24     2    22    1
    25     3    23    1
    26     4    24    1
    27     5    25    1
    28     6    26    1
    29     7    27    1
    30     8    28    1
    31     9    29    1
    32    10    30    1
    33    11    31    1
    34    17    32    1
    35    17    33    1
    36    19    34    1
