@<TRIPOS>MOLECULE
DAR-DIA-23aa0b97-19
 35 37 0 0 0
SMALL
GASTEIGER

@<TRIPOS>ATOM
      1 C           5.6880   -1.0556   18.4218 C.1     1  UNL1        0.0992
      2 C          12.7403    2.2635   23.3297 C.ar    1  UNL1       -0.0611
      3 C          11.5364    2.2446   24.0301 C.ar    1  UNL1       -0.0612
      4 C           5.2390    1.0750   21.4409 C.ar    1  UNL1       -0.0588
      5 C           5.0682    0.5473   20.1611 C.ar    1  UNL1       -0.0442
      6 C          13.2666    1.0795   22.8136 C.ar    1  UNL1       -0.0526
      7 C          10.8533    1.0417   24.2175 C.ar    1  UNL1       -0.0537
      8 C           6.2058    0.5402   22.2925 C.ar    1  UNL1       -0.0404
      9 C           6.8308   -1.0500   20.5844 C.ar    1  UNL1       -0.0231
     10 C          13.0686   -1.3505   22.5013 C.ar    1  UNL1        0.0353
     11 C          11.2813   -2.5245   23.3392 C.ar    1  UNL1        0.0318
     12 C           5.8640   -0.5152   19.7329 C.ar    1  UNL1        0.0535
     13 C          12.5877   -0.1367   22.9961 C.ar    1  UNL1        0.0005
     14 C          11.3686   -0.1599   23.7046 C.ar    1  UNL1       -0.0114
     15 C          10.7077   -1.3818   23.8757 C.ar    1  UNL1       -0.0128
     16 C           7.0016   -0.5222   21.8643 C.ar    1  UNL1        0.0346
     17 C           8.2867   -0.6612   24.0263 C.2     1  UNL1        0.2216
     18 C           9.4138   -1.5087   24.6094 C.3     1  UNL1        0.0514
     19 N           5.5452   -1.4945   17.3571 N.1     1  UNL1       -0.1909
     20 N          12.4455   -2.5406   22.6559 N.ar    1  UNL1       -0.2624
     21 N           7.9833   -1.0636   22.7281 N.am    1  UNL1       -0.2852
     22 O           7.7589    0.2426   24.6664 O.2     1  UNL1       -0.2751
     23 H          13.2695    3.2008   23.1853 H       1  UNL1        0.0618
     24 H          11.1279    3.1678   24.4311 H       1  UNL1        0.0618
     25 H           4.6199    1.9029   21.7741 H       1  UNL1        0.0619
     26 H           4.3099    0.9746   19.5095 H       1  UNL1        0.0630
     27 H          14.2075    1.1129   22.2692 H       1  UNL1        0.0624
     28 H           9.9168    1.0663   24.7696 H       1  UNL1        0.0624
     29 H           6.3301    0.9596   23.2878 H       1  UNL1        0.0636
     30 H           7.4531   -1.8793   20.2538 H       1  UNL1        0.0649
     31 H          14.0018   -1.4029   21.9468 H       1  UNL1        0.0836
     32 H          10.8062   -3.4952   23.4453 H       1  UNL1        0.0832
     33 H           9.0816   -2.5594   24.6184 H       1  UNL1        0.0408
     34 H           9.5460   -1.2238   25.6657 H       1  UNL1        0.0408
     35 H           8.5313   -1.8372   22.3573 H       1  UNL1        0.1548
@<TRIPOS>BOND
     1     1    12    1
     2     1    19    3
     3     2     3   ar
     4     2     6   ar
     5     3     7   ar
     6     4     5   ar
     7     4     8   ar
     8     5    12   ar
     9     6    13   ar
    10     7    14   ar
    11     8    16   ar
    12     9    12   ar
    13     9    16   ar
    14    10    13   ar
    15    10    20   ar
    16    11    15   ar
    17    11    20   ar
    18    13    14   ar
    19    14    15   ar
    20    15    18    1
    21    16    21    1
    22    17    18    1
    23    17    21   am
    24    17    22    2
    25     2    23    1
    26     3    24    1
    27     4    25    1
    28     5    26    1
    29     6    27    1
    30     7    28    1
    31     8    29    1
    32     9    30    1
    33    10    31    1
    34    11    32    1
    35    18    33    1
    36    18    34    1
    37    21    35    1
