@<TRIPOS>MOLECULE
Mpro-P1788_0A
 33 37 0 0 0
SMALL
GASTEIGER

@<TRIPOS>ATOM
      1 N           8.6220    6.8220   22.7990 N.3     1  UNL1       -0.1313
      2 C           7.9510    5.9030   22.8140 C.3     1  UNL1        0.1109
      3 C           7.0460    4.7470   22.7910 C.3     1  UNL1        0.0392
      4 C           5.6900    4.9220   23.4380 C.3     1  UNL1        0.0032
      5 C           5.7930    4.9240   21.9610 C.3     1  UNL1        0.0032
      6 C           7.7330    3.3860   22.8180 C.3     1  UNL1        0.1443
      7 S           7.9580    2.6490   24.4250 S.3     1  UNL1       -0.0547
      8 O           6.7250    2.0550   24.8360 O.3     1  UNL1       -0.0822
      9 O           8.5750    3.6230   25.2690 O.3     1  UNL1       -0.0822
     10 N           9.0270    1.4390   24.2240 N.3     1  UNL1       -0.1786
     11 C          10.4290    1.6880   24.5770 C.3     1  UNL1        0.0935
     12 C           8.6530    0.0130   24.1800 C.3     1  UNL1        0.0975
     13 C           9.3650   -0.5840   22.9630 C.3     1  UNL1        0.0652
     14 C          10.8580   -0.2780   23.0080 C.3     1  UNL1        0.0079
     15 C          11.3290    0.8510   23.7010 C.3     1  UNL1        0.0179
     16 C          12.6750    1.1990   23.6050 C.3     1  UNL1        0.0027
     17 C          13.5590    0.4420   22.8600 C.3     1  UNL1        0.0163
     18 C          11.7630   -1.0600   22.2850 C.3     1  UNL1        0.0165
     19 C          13.0950   -0.6830   22.2190 C.3     1  UNL1        0.0799
     20 CL         14.2020   -1.6290   21.2610 Cl      1  UNL1       -0.1150
     21 C           8.7540    0.0640   21.7180 C.3     1  UNL1        0.2269
     22 O           9.2720    1.0320   21.1720 O.3     1  UNL1       -0.2036
     23 N           7.5820   -0.4810   21.2960 N.3     1  UNL1       -0.1892
     24 C           6.7850   -0.0540   20.2040 C.3     1  UNL1        0.0926
     25 C           5.6140    0.7320   20.4560 C.3     1  UNL1        0.0189
     26 C           5.0910    0.9780   21.7540 C.3     1  UNL1        0.0015
     27 C           3.9610    1.7290   21.9270 C.3     1  UNL1        0.0000
     28 C           3.2940    2.2700   20.8350 C.3     1  UNL1        0.0000
     29 C           3.7590    2.0660   19.5660 C.3     1  UNL1        0.0015
     30 C           4.9260    1.2920   19.3410 C.3     1  UNL1        0.0188
     31 C           5.4360    1.0250   18.0460 C.3     1  UNL1        0.0887
     32 N           6.5060    0.2820   17.8080 N.3     1  UNL1       -0.2166
     33 C           7.1500   -0.2360   18.8660 C.3     1  UNL1        0.1061
@<TRIPOS>BOND
     1     2     1    1
     2     3     2    1
     3     4     3    1
     4     5     4    1
     5     5     3    1
     6     6     3    1
     7     7     6    1
     8     7     8    1
     9     9     7    1
    10    10     7    1
    11    11    10    1
    12    12    10    1
    13    13    12    1
    14    14    13    1
    15    15    14    1
    16    15    11    1
    17    16    15    1
    18    17    16    1
    19    14    18    1
    20    19    18    1
    21    19    17    1
    22    20    19    1
    23    13    21    1
    24    22    21    1
    25    23    21    1
    26    24    23    1
    27    25    24    1
    28    26    25    1
    29    27    26    1
    30    28    27    1
    31    29    28    1
    32    30    29    1
    33    30    25    1
    34    31    30    1
    35    32    31    1
    36    33    32    1
    37    33    24    1
