Mpro-P1788_0A
     RDKit          3D

 33 37  0  0  0  0  0  0  0  0999 V2000
    8.6220    6.8220   22.7990 N   0  0  0  0  0  0  0  0  0  0  0  0
    7.9510    5.9030   22.8140 C   0  0  0  0  0  0  0  0  0  0  0  0
    7.0460    4.7470   22.7910 C   0  0  1  0  0  0  0  0  0  0  0  0
    5.6900    4.9220   23.4380 C   0  0  0  0  0  0  0  0  0  0  0  0
    5.7930    4.9240   21.9610 C   0  0  0  0  0  0  0  0  0  0  0  0
    7.7330    3.3860   22.8180 C   0  0  0  0  0  0  0  0  0  0  0  0
    7.9580    2.6490   24.4250 S   0  0  2  0  0  0  0  0  0  0  0  0
    6.7250    2.0550   24.8360 O   0  0  0  0  0  0  0  0  0  0  0  0
    8.5750    3.6230   25.2690 O   0  0  0  0  0  0  0  0  0  0  0  0
    9.0270    1.4390   24.2240 N   0  0  0  0  0  0  0  0  0  0  0  0
   10.4290    1.6880   24.5770 C   0  0  0  0  0  0  0  0  0  0  0  0
    8.6530    0.0130   24.1800 C   0  0  0  0  0  0  0  0  0  0  0  0
    9.3650   -0.5840   22.9630 C   0  0  2  0  0  0  0  0  0  0  0  0
   10.8580   -0.2780   23.0080 C   0  0  2  0  0  0  0  0  0  0  0  0
   11.3290    0.8510   23.7010 C   0  0  0  0  0  0  0  0  0  0  0  0
   12.6750    1.1990   23.6050 C   0  0  0  0  0  0  0  0  0  0  0  0
   13.5590    0.4420   22.8600 C   0  0  0  0  0  0  0  0  0  0  0  0
   11.7630   -1.0600   22.2850 C   0  0  0  0  0  0  0  0  0  0  0  0
   13.0950   -0.6830   22.2190 C   0  0  0  0  0  0  0  0  0  0  0  0
   14.2020   -1.6290   21.2610 Cl  0  0  0  0  0  0  0  0  0  0  0  0
    8.7540    0.0640   21.7180 C   0  0  0  0  0  0  0  0  0  0  0  0
    9.2720    1.0320   21.1720 O   0  0  0  0  0  0  0  0  0  0  0  0
    7.5820   -0.4810   21.2960 N   0  0  0  0  0  0  0  0  0  0  0  0
    6.7850   -0.0540   20.2040 C   0  0  1  0  0  0  0  0  0  0  0  0
    5.6140    0.7320   20.4560 C   0  0  0  0  0  0  0  0  0  0  0  0
    5.0910    0.9780   21.7540 C   0  0  0  0  0  0  0  0  0  0  0  0
    3.9610    1.7290   21.9270 C   0  0  0  0  0  0  0  0  0  0  0  0
    3.2940    2.2700   20.8350 C   0  0  0  0  0  0  0  0  0  0  0  0
    3.7590    2.0660   19.5660 C   0  0  0  0  0  0  0  0  0  0  0  0
    4.9260    1.2920   19.3410 C   0  0  0  0  0  0  0  0  0  0  0  0
    5.4360    1.0250   18.0460 C   0  0  0  0  0  0  0  0  0  0  0  0
    6.5060    0.2820   17.8080 N   0  0  0  0  0  0  0  0  0  0  0  0
    7.1500   -0.2360   18.8660 C   0  0  0  0  0  0  0  0  0  0  0  0
  2  1  1  0
  3  2  1  1
  4  3  1  0
  5  4  1  0
  5  3  1  0
  6  3  1  0
  7  6  1  0
  7  8  1  1
  9  7  1  0
 10  7  1  0
 11 10  1  0
 12 10  1  0
 13 12  1  0
 14 13  1  0
 15 14  1  0
 15 11  1  0
 16 15  1  0
 17 16  1  0
 14 18  1  6
 19 18  1  0
 19 17  1  0
 20 19  1  0
 13 21  1  6
 22 21  1  0
 23 21  1  0
 24 23  1  1
 25 24  1  0
 26 25  1  0
 27 26  1  0
 28 27  1  0
 29 28  1  0
 30 29  1  0
 30 25  1  0
 31 30  1  0
 32 31  1  0
 33 32  1  0
 33 24  1  0
M  END
$$$$
