# Molecule written by the XED library from Cresset
@<TRIPOS>MOLECULE
CatS_174
    90     94      1
SMALL
USER_CHARGES
@<TRIPOS>ATOM
      1  C3          1.5390   17.6212   -4.8873 N.am      1 MOL1       -0.3759
      2  N1          0.2598   17.5464   -5.2822 C.2       1 MOL1        0.2935
      3  C4         -0.1246   16.1702   -5.7827 C.3       1 MOL1        0.0119
      4  C5         -1.1909   15.5859   -4.8377 C.3       1 MOL1       -0.0680
      5  C6         -1.6667   14.2212   -5.3743 C.3       1 MOL1       -0.0615
      6  N2         -2.2339   14.3441   -6.7309 N.4       1 MOL1       -0.2282
      7  C7         -1.2228   14.8908   -7.6589 C.3       1 MOL1       -0.0615
      8  C8         -0.7219   16.2748   -7.1991 C.3       1 MOL1       -0.0680
      9  C9         -2.7049   13.0258   -7.1969 C.3       1 MOL1       -0.0328
     10  C10        -3.4129   13.0570   -8.5709 C.3       1 MOL1        0.0191
     11  C11        -3.3397   11.6551   -9.1999 C.3       1 MOL1        0.0979
     12  N3         -4.3388   10.6961   -8.7088 N.pl3     1 MOL1       -0.0670
     13  C12        -5.5312   10.3252   -9.2408 C.ar      1 MOL1        0.0572
     14  C13        -6.2048    9.4820   -8.4578 C.ar      1 MOL1       -0.0684
     15  C14        -5.3403    9.2807   -7.3578 C.ar      1 MOL1        0.0392
     16  N4         -4.2648   10.0230   -7.5360 N.2       1 MOL1       -0.2943
     17  C15        -5.5279    8.4128   -6.2060 C.ar      1 MOL1       -0.0066
     18  C16        -4.4677    7.7389   -5.6284 C.ar      1 MOL1       -0.0846
     19  C17        -4.6601    6.9417   -4.5282 C.ar      1 MOL1       -0.0687
     20  C18        -5.9102    6.7700   -3.9696 C.ar      1 MOL1        0.0171
     21  C19        -6.9761    7.4398   -4.5580 C.ar      1 MOL1        0.0480
     22  C20        -6.7841    8.2539   -5.6505 C.ar      1 MOL1       -0.0655
     23  S1         -8.6624    7.2887   -3.9531 S.3       1 MOL1       -0.1783
     24  C21        -9.2128    8.9467   -3.4728 C.3       1 MOL1       -0.0087
     25  C22        -8.0197    9.8150   -3.0208 C.3       1 MOL1       -0.0441
     26  N5         -8.4070   10.8680   -2.0648 N.4       1 MOL1       -0.2282
     27  C23        -9.7689   11.3439   -2.3738 C.3       1 MOL1       -0.0507
     28  C24       -10.2313   12.4113   -1.3618 C.3       1 MOL1       -0.0181
     29  C25        -9.2442   13.5921   -1.3598 C.3       1 MOL1        0.1870
     30  C26        -7.8197   13.0741   -1.0857 C.3       1 MOL1       -0.0181
     31  C27        -7.4532   11.9948   -2.1231 C.3       1 MOL1       -0.0507
     32  C28        -5.9451    5.8567   -2.7421 C.3       1 MOL1        0.4149
     33  F1         -4.9472    4.8880   -2.7813 F         1 MOL1       -0.1514
     34  F2         -7.1422    5.1655   -2.5934 F         1 MOL1       -0.1514
     35  F3         -5.7380    6.5908   -1.5781 F         1 MOL1       -0.1514
     36  C29        -7.5839    8.9490   -8.8236 C.3       1 MOL1        0.1169
     37  N6         -8.2562    9.7460   -9.8749 N.3       1 MOL1       -0.4606
     38  C30        -7.3182    9.9449  -11.0011 C.3       1 MOL1        0.0844
     39  C31        -6.0942   10.7930  -10.5726 C.3       1 MOL1       -0.0158
     40  S2         -9.7910    9.3100  -10.1697 S.3       1 MOL1        0.4316
     41  O3         -9.8658    7.9423   -9.7661 O.2       1 MOL1       -0.3139
     42  O4        -10.0689    9.5801  -11.5449 O.2       1 MOL1       -0.3139
     43  C32       -10.9188   10.2888   -9.1307 C.3       1 MOL1        0.0421
     44  H33        -9.5602   14.3838   -0.5172 F         1 MOL1       -0.1808
     45  H          -0.5243   18.4843   -5.2406 O.2       1 MOL1       -0.4209
     46  H34        -9.2640   14.1291   -2.4333 F         1 MOL1       -0.1808
     47  H18        -4.5658   13.3628   -8.4238 O.3       1 MOL1       -0.4408
     48  H19        -2.8853   13.8321   -9.3200 H         1 MOL1        0.0680
     49  H7          0.8141   15.4252   -5.8331 H         1 MOL1        0.0553
     50  H8         -0.7253   15.4543   -3.7393 H         1 MOL1        0.0472
     51  H9         -2.1310   16.3300   -4.7864 H         1 MOL1        0.0472
     52  H10        -2.5056   13.8239   -4.6130 H         1 MOL1        0.0529
     53  H11        -0.7429   13.4541   -5.3882 H         1 MOL1        0.0529
     54  H12        -1.6998   15.0320   -8.7497 H         1 MOL1        0.0529
     55  H13        -0.2802   14.1498   -7.7232 H         1 MOL1        0.0529
     56  H14         0.1168   16.6711   -7.9589 H         1 MOL1        0.0472
     57  H15        -1.6447   17.0420   -7.1910 H         1 MOL1        0.0472
     58  H16        -3.5301   12.6211   -6.4257 H         1 MOL1        0.0549
     59  H17        -1.8131   12.2240   -7.2245 H         1 MOL1        0.0549
     60  H21        -2.2550   11.1926   -8.9839 H         1 MOL1        0.0624
     61  H22        -3.5489    7.8381   -6.0090 H         1 MOL1        0.0910
     62  H23        -3.8722    6.4761   -4.1251 H         1 MOL1        0.0908
     63  H24        -7.5649    8.7319   -6.0517 H         1 MOL1        0.0929
     64  H25        -9.7308    9.4501   -4.4321 H         1 MOL1        0.0553
     65  H26       -10.0248    8.8689   -2.5917 H         1 MOL1        0.0553
     66  H27        -7.5951   10.3442   -4.0120 H         1 MOL1        0.0547
     67  H28        -7.1412    9.1331   -2.5673 H         1 MOL1        0.0547
     68  H29       -10.5485   10.4349   -2.3159 H         1 MOL1        0.0529
     69  H30        -9.7885   11.8010   -3.4839 H         1 MOL1        0.0529
     70  H31       -10.2647   11.9168   -0.2699 H         1 MOL1        0.0526
     71  H32       -11.3257   12.8012   -1.6604 H         1 MOL1        0.0526
     72  H35        -7.0418   13.9840   -1.1570 H         1 MOL1        0.0526
     73  H36        -7.7743   12.5993    0.0150 H         1 MOL1        0.0526
     74  H37        -7.4592   12.4811   -3.2209 H         1 MOL1        0.0529
     75  H38        -6.3403   11.6217   -1.8749 H         1 MOL1        0.0529
     76  H39        -7.4860    7.8081   -9.1823 H         1 MOL1        0.0628
     77  H40        -8.2803    8.9947   -7.8460 H         1 MOL1        0.0628
     78  H41        -6.9427    8.8784  -11.4011 H         1 MOL1        0.0601
     79  H42        -7.8701   10.5226  -11.8949 H         1 MOL1        0.0601
     80  H43        -6.4273   11.9414  -10.4689 H         1 MOL1        0.0516
     81  H44        -5.2559   10.6982  -11.4263 H         1 MOL1        0.0516
     82  H45       -11.0145   11.4131   -9.5421 H         1 MOL1        0.0588
     83  H46       -12.0137    9.7989   -9.1413 H         1 MOL1        0.0588
     84  H47       -10.5204   10.3166   -7.9993 H         1 MOL1        0.0588
     85  H          -2.9463   14.9137   -6.7056 H         1 MOL1        0.1922
     86  H          -8.4052   10.5166   -1.2236 H         1 MOL1        0.1922
     87  H           2.0711   16.9221   -4.9289 H         1 MOL1        0.2025
     88  H           1.8515   18.3838   -4.5785 H         1 MOL1        0.2025
     89  H          -3.4678   11.7778  -10.3859 H         1 MOL1        0.0624
     90  H          -5.0493   13.4019   -9.3050 H         1 MOL1        0.3291
@<TRIPOS>BOND
     1      2      1 am
     2      2     45 2 
     3      3      2 1 
     4      4      3 1 
     5      5      4 1 
     6      6      5 1 
     7      7      6 1 
     8      8      3 1 
     9      8      7 1 
    10      9      6 1 
    11     10      9 1 
    12     11     10 1 
    13     12     11 1 
    14     13     12 ar
    15     14     13 ar
    16     15     14 ar
    17     16     12 ar
    18     16     15 ar
    19     17     15 1 
    20     18     17 ar
    21     19     18 ar
    22     20     19 ar
    23     21     20 ar
    24     22     17 ar
    25     22     21 ar
    26     23     21 1 
    27     24     23 1 
    28     25     24 1 
    29     26     25 1 
    30     27     26 1 
    31     28     27 1 
    32     29     28 1 
    33     30     29 1 
    34     31     26 1 
    35     31     30 1 
    36     32     20 1 
    37     33     32 1 
    38     34     32 1 
    39     35     32 1 
    40     36     14 1 
    41     37     36 1 
    42     38     37 1 
    43     39     13 1 
    44     39     38 1 
    45     40     37 1 
    46     41     40 2 
    47     42     40 2 
    48     43     40 1 
    49     44     29 1 
    50     46     29 1 
    51     47     10 1 
    52      1     87 1 
    53      1     88 1 
    54      6     85 1 
    55     26     86 1 
    56     48     10 1 
    57     49      3 1 
    58     50      4 1 
    59     51      4 1 
    60     52      5 1 
    61     53      5 1 
    62     54      7 1 
    63     55      7 1 
    64     56      8 1 
    65     57      8 1 
    66     58      9 1 
    67     59      9 1 
    68     60     11 1 
    69     61     18 1 
    70     62     19 1 
    71     63     22 1 
    72     64     24 1 
    73     65     24 1 
    74     66     25 1 
    75     67     25 1 
    76     68     27 1 
    77     69     27 1 
    78     70     28 1 
    79     71     28 1 
    80     72     30 1 
    81     73     30 1 
    82     74     31 1 
    83     75     31 1 
    84     76     36 1 
    85     77     36 1 
    86     78     38 1 
    87     79     38 1 
    88     80     39 1 
    89     81     39 1 
    90     82     43 1 
    91     83     43 1 
    92     84     43 1 
    93     89     11 1 
    94     90     47 1 
@<TRIPOS>SUBSTRUCTURE
     1 MOL1         1 MOLECULE          1 A
