lig_CHEMBL3402745_200_5
  -OEChem-01272013103D

 45 47  0     0  0  0  0  0  0999 V2000
   25.0500   33.1200   50.3700 C   0  0  0  0  0  0  0  0  0  0  0  0
   25.2400   33.9600   51.6300 C   0  0  0  0  0  0  0  0  0  0  0  0
   24.2400   33.5900   52.5800 O   0  0  0  0  0  0  0  0  0  0  0  0
   24.4300   33.8100   53.9000 C   0  0  0  0  0  0  0  0  0  0  0  0
   25.4400   34.3300   54.3800 O   0  0  0  0  0  0  0  0  0  0  0  0
   23.3100   33.3500   54.5800 N   0  0  0  0  0  0  0  0  0  0  0  0
   23.1400   33.1000   55.9500 C   0  0  0  0  0  0  0  0  0  0  0  0
   24.1900   33.1200   56.8900 C   0  0  0  0  0  0  0  0  0  0  0  0
   23.9700   32.7300   58.2100 C   0  0  0  0  0  0  0  0  0  0  0  0
   22.7000   32.3200   58.6100 C   0  0  0  0  0  0  0  0  0  0  0  0
   21.6400   32.3000   57.6900 C   0  0  0  0  0  0  0  0  0  0  0  0
   20.2500   31.8600   58.1400 C   0  0  0  0  0  0  0  0  0  0  0  0
   19.9400   30.4500   57.8200 N   0  0  0  0  0  0  0  0  0  0  0  0
   19.4500   30.2100   56.5400 N   0  0  0  0  0  0  0  0  0  0  0  0
   19.1600   29.0200   56.1200 C   0  0  0  0  0  0  0  0  0  0  0  0
   19.4200   27.9300   57.0600 C   0  0  0  0  0  0  0  0  0  0  0  0
   19.9100   28.1600   58.3000 C   0  0  0  0  0  0  0  0  0  0  0  0
   20.2200   29.4900   58.7800 C   0  0  0  0  0  0  0  0  0  0  0  0
   20.6500   29.6900   59.9200 O   0  0  0  0  0  0  0  0  0  0  0  0
   18.6000   28.7500   54.7800 C   0  0  0  0  0  0  0  0  0  0  0  0
   18.6600   29.7400   53.7700 C   0  0  0  0  0  0  0  0  0  0  0  0
   18.1300   29.5100   52.5100 C   0  0  0  0  0  0  0  0  0  0  0  0
   18.1800   30.4800   51.5700 F   0  0  0  0  0  0  0  0  0  0  0  0
   17.5300   28.2900   52.2100 C   0  0  0  0  0  0  0  0  0  0  0  0
   17.4600   27.3000   53.1800 C   0  0  0  0  0  0  0  0  0  0  0  0
   16.8700   26.1100   52.9000 F   0  0  0  0  0  0  0  0  0  0  0  0
   17.9900   27.5200   54.4500 C   0  0  0  0  0  0  0  0  0  0  0  0
   21.8700   32.7100   56.3700 C   0  0  0  0  0  0  0  0  0  0  0  0
   25.8000   33.3800   49.6200 H   0  0  0  0  0  0  0  0  0  0  0  0
   24.0700   33.2900   49.9200 H   0  0  0  0  0  0  0  0  0  0  0  0
   25.1500   32.0500   50.5800 H   0  0  0  0  0  0  0  0  0  0  0  0
   26.2400   33.8000   52.0300 H   0  0  0  0  0  0  0  0  0  0  0  0
   25.1400   35.0200   51.4100 H   0  0  0  0  0  0  0  0  0  0  0  0
   22.5300   33.1000   53.9900 H   0  0  0  0  0  0  0  0  0  0  0  0
   25.2000   33.4100   56.6100 H   0  0  0  0  0  0  0  0  0  0  0  0
   24.7800   32.7400   58.9100 H   0  0  0  0  0  0  0  0  0  0  0  0
   22.5400   31.9900   59.6300 H   0  0  0  0  0  0  0  0  0  0  0  0
   20.1200   32.0800   59.2000 H   0  0  0  0  0  0  0  0  0  0  0  0
   19.5100   32.5000   57.6500 H   0  0  0  0  0  0  0  0  0  0  0  0
   19.2500   26.9000   56.7800 H   0  0  0  0  0  0  0  0  0  0  0  0
   20.1100   27.3300   58.9600 H   0  0  0  0  0  0  0  0  0  0  0  0
   19.1300   30.6900   53.9700 H   0  0  0  0  0  0  0  0  0  0  0  0
   17.1300   28.1100   51.2200 H   0  0  0  0  0  0  0  0  0  0  0  0
   17.8900   26.7300   55.1700 H   0  0  0  0  0  0  0  0  0  0  0  0
   21.0500   32.6800   55.6700 H   0  0  0  0  0  0  0  0  0  0  0  0
  1 29  1  0  0  0  0
  1 30  1  0  0  0  0
  1 31  1  0  0  0  0
  1  2  1  0  0  0  0
 24 43  1  0  0  0  0
  2 33  1  0  0  0  0
 22 23  1  0  0  0  0
  2 32  1  0  0  0  0
  2  3  1  0  0  0  0
 22 24  2  0  0  0  0
 24 25  1  0  0  0  0
 21 22  1  0  0  0  0
  3  4  1  0  0  0  0
 25 26  1  0  0  0  0
 25 27  2  0  0  0  0
 21 42  1  0  0  0  0
 20 21  2  0  0  0  0
  4  5  2  0  0  0  0
  4  6  1  0  0  0  0
  6 34  1  0  0  0  0
 20 27  1  0  0  0  0
 27 44  1  0  0  0  0
  6  7  1  0  0  0  0
 15 20  1  0  0  0  0
 28 45  1  0  0  0  0
  7 28  2  0  0  0  0
  7  8  1  0  0  0  0
 14 15  2  0  0  0  0
 15 16  1  0  0  0  0
 11 28  1  0  0  0  0
 13 14  1  0  0  0  0
  8 35  1  0  0  0  0
 16 40  1  0  0  0  0
  8  9  2  0  0  0  0
 16 17  2  0  0  0  0
 12 39  1  0  0  0  0
 11 12  1  0  0  0  0
 10 11  2  0  0  0  0
 12 13  1  0  0  0  0
 13 18  1  0  0  0  0
 12 38  1  0  0  0  0
  9 10  1  0  0  0  0
  9 36  1  0  0  0  0
 17 18  1  0  0  0  0
 17 41  1  0  0  0  0
 10 37  1  0  0  0  0
 18 19  2  0  0  0  0
M  END
$$$$
