lig_p38a_2j
                    3D
 Structure written by MMmdl.
 48 51  0  0  1  0            999 V2000
   38.4400   36.3400   16.6500 C   0  0  0  0  0  0
   34.5500   34.9800   21.1800 C   0  0  0  0  0  0
   37.8000   35.8000   17.7900 C   0  0  0  0  0  0
   34.0400   38.9800   23.7400 C   0  0  0  0  0  0
   34.8000   37.8100   21.4400 C   0  0  0  0  0  0
   35.2500   37.1300   20.2300 C   0  0  0  0  0  0
   36.2700   36.6100   15.5600 C   0  0  0  0  0  0
   35.6400   36.0500   16.6900 C   0  0  0  0  0  0
   34.3100   37.0400   22.5100 C   0  0  0  0  0  0
   34.8500   39.2100   21.6200 C   0  0  0  0  0  0
   35.1700   35.7800   20.1300 C   0  0  0  0  0  0
   36.4000   35.6600   17.8100 C   0  0  0  0  0  0
   33.6700   34.8300   23.4600 C   0  0  0  0  0  0
   38.5300   35.4400   18.8400 F   0  0  0  0  0  0
   35.6900   35.0000   18.9600 C   0  0  0  0  0  0
   34.4800   39.7900   22.7800 N   0  0  0  0  0  0
   34.3300   33.7800   21.0200 O   0  0  0  0  0  0
   34.2100   35.6200   22.3400 N   0  0  0  0  0  0
   33.9300   37.6500   23.6600 N   0  0  0  0  0  0
   33.6700   39.5700   24.9300 N   0  0  0  0  0  0
   39.5100   36.4500   16.6300 H   0  0  0  0  0  0
   35.7000   37.7400   19.4700 H   0  0  0  0  0  0
   35.6800   36.9200   14.7100 H   0  0  0  0  0  0
   34.5700   35.9100   16.6900 H   0  0  0  0  0  0
   35.2200   39.8600   20.8400 H   0  0  0  0  0  0
   33.4400   35.4700   24.3200 H   0  0  0  0  0  0
   32.7400   34.3400   23.1600 H   0  0  0  0  0  0
   34.3500   34.0600   23.8400 H   0  0  0  0  0  0
   33.7900   40.5700   24.9700 H   0  0  0  0  0  0
   36.4300   34.2800   19.3100 H   0  0  0  0  0  0
   34.8700   34.4700   18.4700 H   0  0  0  0  0  0
   37.7000   36.7900   15.4900 C   0  0  0  0  0  0
   38.3000   37.3200   14.4300 F   0  0  0  0  0  0
   31.1300   38.3300   27.4800 C   0  0  0  0  0  0
   31.7000   39.1500   26.3100 C   0  0  0  0  0  0
   33.1500   38.7500   26.0100 C   0  0  0  0  0  0
   34.0300   38.9100   27.2600 C   0  0  0  0  0  0
   33.4700   38.1000   28.4300 C   0  0  0  0  0  0
   32.0100   38.4900   28.7300 O   0  0  0  0  0  0
   31.6500   40.2300   26.5500 H   0  0  0  0  0  0
   31.0600   38.9900   25.4000 H   0  0  0  0  0  0
   33.1900   37.6900   25.6600 H   0  0  0  0  0  0
   35.0800   38.5900   27.0300 H   0  0  0  0  0  0
   34.0800   39.9900   27.5400 H   0  0  0  0  0  0
   33.5200   37.0100   28.1900 H   0  0  0  0  0  0
   34.1000   38.2500   29.3400 H   0  0  0  0  0  0
   31.0900   37.2800   27.2000 H   0  0  0  0  0  0
   30.1200   38.6600   27.7000 H   0  0  0  0  0  0
  1  3  1  0  0  0
  1 21  1  0  0  0
  1 32  2  0  0  0
  2 11  1  0  0  0
  2 17  2  0  0  0
  2 18  1  0  0  0
  3 12  2  0  0  0
  3 14  1  0  0  0
  4 16  1  0  0  0
  4 19  2  0  0  0
  4 20  1  0  0  0
  5  6  1  0  0  0
  5  9  2  0  0  0
  5 10  1  0  0  0
  6 11  2  0  0  0
  6 22  1  0  0  0
  7  8  2  0  0  0
  7 23  1  0  0  0
  7 32  1  0  0  0
  8 12  1  0  0  0
  8 24  1  0  0  0
  9 18  1  0  0  0
  9 19  1  0  0  0
 10 16  2  0  0  0
 10 25  1  0  0  0
 11 15  1  0  0  0
 12 15  1  0  0  0
 13 18  1  0  0  0
 13 26  1  0  0  0
 13 27  1  0  0  0
 13 28  1  0  0  0
 15 30  1  0  0  0
 15 31  1  0  0  0
 20 29  1  0  0  0
 20 36  1  0  0  0
 32 33  1  0  0  0
 34 35  1  0  0  0
 34 39  1  0  0  0
 34 47  1  0  0  0
 34 48  1  0  0  0
 35 36  1  0  0  0
 35 40  1  0  0  0
 35 41  1  0  0  0
 36 37  1  0  0  0
 36 42  1  0  0  0
 37 38  1  0  0  0
 37 43  1  0  0  0
 37 44  1  0  0  0
 38 39  1  0  0  0
 38 45  1  0  0  0
 38 46  1  0  0  0
M  END
> <s_m_entry_id>
11

> <s_m_entry_name>
lig_p38a_2j.1

> <s_pdb_PDB_TITLE>
MX MODEL

> <i_pdb_PDB_Model>
1

> <r_pdb_PDB_CRYST1_a>
187.72

> <r_pdb_PDB_CRYST1_b>
135.86

> <r_pdb_PDB_CRYST1_c>
298.32

> <r_pdb_PDB_CRYST1_alpha>
90

> <r_pdb_PDB_CRYST1_beta>
90

> <r_pdb_PDB_CRYST1_gamma>
90

> <s_pdb_PDB_CRYST1_Space_Group>
P 1

> <i_pdb_PDB_CRYST1_z>
1

> <s_pdb_PDB_format_version>
3.0

> <s_m_Source_Path>
/users/home/dhahn3/projects/PLBenchmarks/PLBenchmarks/data/2019-12-09_p38/03_docked

> <s_m_Source_File>
lig_p38a_2j.pdb

> <i_m_Source_File_Index>
1

$$$$
