# Molecule written by the XED library from Cresset
@<TRIPOS>MOLECULE
CatS_195
    93     97      1
SMALL
USER_CHARGES
@<TRIPOS>ATOM
      1  C3          1.5397   17.6203   -4.8802 N.am      1 MOL1       -0.3759
      2  N1          0.2641   17.5490   -5.2888 C.2       1 MOL1        0.2935
      3  C4         -0.1249   16.1699   -5.7828 C.3       1 MOL1        0.0119
      4  C5         -1.1908   15.5860   -4.8381 C.3       1 MOL1       -0.0680
      5  C6         -1.6668   14.2212   -5.3743 C.3       1 MOL1       -0.0615
      6  N2         -2.2340   14.3438   -6.7309 N.4       1 MOL1       -0.2282
      7  C7         -1.2230   14.8908   -7.6589 C.3       1 MOL1       -0.0615
      8  C8         -0.7219   16.2749   -7.1989 C.3       1 MOL1       -0.0680
      9  C9         -2.7051   13.0258   -7.1970 C.3       1 MOL1       -0.0328
     10  C10        -3.4127   13.0569   -8.5709 C.3       1 MOL1        0.0191
     11  C11        -3.3400   11.6552   -9.2000 C.3       1 MOL1        0.0979
     12  N3         -4.3389   10.6963   -8.7091 N.pl3     1 MOL1       -0.0670
     13  C12        -5.5311   10.3253   -9.2407 C.ar      1 MOL1        0.0572
     14  C13        -6.2050    9.4819   -8.4579 C.ar      1 MOL1       -0.0684
     15  C14        -5.3401    9.2807   -7.3581 C.ar      1 MOL1        0.0392
     16  N4         -4.2645   10.0228   -7.5357 N.2       1 MOL1       -0.2943
     17  C15        -5.5280    8.4130   -6.2062 C.ar      1 MOL1       -0.0066
     18  C16        -4.4678    7.7388   -5.6281 C.ar      1 MOL1       -0.0846
     19  C17        -4.6602    6.9419   -4.5280 C.ar      1 MOL1       -0.0687
     20  C18        -5.9103    6.7700   -3.9698 C.ar      1 MOL1        0.0171
     21  C19        -6.9759    7.4399   -4.5578 C.ar      1 MOL1        0.0480
     22  C20        -6.7839    8.2539   -5.6508 C.ar      1 MOL1       -0.0655
     23  S1         -8.6621    7.2887   -3.9531 S.3       1 MOL1       -0.1783
     24  C21        -9.2129    8.9471   -3.4727 C.3       1 MOL1       -0.0087
     25  C22        -8.0196    9.8152   -3.0210 C.3       1 MOL1       -0.0441
     26  N5         -8.4071   10.8677   -2.0652 N.4       1 MOL1       -0.2286
     27  C23        -9.7687   11.3441   -2.3739 C.3       1 MOL1       -0.0625
     28  C24       -10.2311   12.4110   -1.3619 C.3       1 MOL1       -0.0797
     29  C25        -9.2438   13.5921   -1.3600 C.3       1 MOL1       -0.0638
     30  C26        -7.8200   13.0739   -1.0857 C.3       1 MOL1       -0.0797
     31  C27        -7.4529   11.9948   -2.1230 C.3       1 MOL1       -0.0625
     32  C28        -5.9451    5.8567   -2.7418 C.3       1 MOL1        0.4149
     33  F1         -4.9474    4.8880   -2.7813 F         1 MOL1       -0.1514
     34  F2         -7.1420    5.1659   -2.5932 F         1 MOL1       -0.1514
     35  F3         -5.7380    6.5910   -1.5778 F         1 MOL1       -0.1514
     36  C29        -7.5840    8.9490   -8.8236 C.3       1 MOL1        0.1169
     37  N6         -8.2563    9.7460   -9.8750 N.3       1 MOL1       -0.4606
     38  C30        -7.3180    9.9449  -11.0012 C.3       1 MOL1        0.0844
     39  C31        -6.0941   10.7931  -10.5728 C.3       1 MOL1       -0.0158
     40  S2         -9.7913    9.3101  -10.1701 S.3       1 MOL1        0.4316
     41  O3         -9.8656    7.9423   -9.7663 O.2       1 MOL1       -0.3139
     42  O4        -10.0689    9.5798  -11.5449 O.2       1 MOL1       -0.3139
     43  C32       -10.9188   10.2890   -9.1311 C.3       1 MOL1        0.0421
     44  H33        -9.5602   14.3837   -0.5172 C.3       1 MOL1       -0.1200
     45  H          -0.5133   18.4928   -5.2650 O.2       1 MOL1       -0.4209
     46  H18        -4.5657   13.3626   -8.4239 O.3       1 MOL1       -0.4408
     47  H19        -2.8850   13.8322   -9.3199 H         1 MOL1        0.0680
     48  H7          0.8140   15.4248   -5.8331 H         1 MOL1        0.0553
     49  H8         -0.7251   15.4542   -3.7395 H         1 MOL1        0.0472
     50  H9         -2.1310   16.3301   -4.7860 H         1 MOL1        0.0472
     51  H10        -2.5058   13.8240   -4.6129 H         1 MOL1        0.0529
     52  H11        -0.7430   13.4540   -5.3879 H         1 MOL1        0.0529
     53  H12        -1.7002   15.0320   -8.7502 H         1 MOL1        0.0529
     54  H13        -0.2801   14.1498   -7.7228 H         1 MOL1        0.0529
     55  H14         0.1170   16.6710   -7.9593 H         1 MOL1        0.0472
     56  H15        -1.6450   17.0419   -7.1910 H         1 MOL1        0.0472
     57  H16        -3.5298   12.6210   -6.4258 H         1 MOL1        0.0549
     58  H17        -1.8132   12.2240   -7.2249 H         1 MOL1        0.0549
     59  H20        -3.4749   11.7688  -10.3873 H         1 MOL1        0.0624
     60  H21        -2.2549   11.1925   -8.9839 H         1 MOL1        0.0624
     61  H22        -3.5492    7.8381   -6.0091 H         1 MOL1        0.0910
     62  H23        -3.8720    6.4760   -4.1248 H         1 MOL1        0.0908
     63  H24        -7.5650    8.7320   -6.0519 H         1 MOL1        0.0929
     64  H25        -9.7312    9.4501   -4.4321 H         1 MOL1        0.0553
     65  H26       -10.0242    8.8693   -2.5918 H         1 MOL1        0.0553
     66  H27        -7.5949   10.3442   -4.0117 H         1 MOL1        0.0547
     67  H28        -7.1413    9.1329   -2.5672 H         1 MOL1        0.0547
     68  H29       -10.5488   10.4350   -2.3161 H         1 MOL1        0.0528
     69  H30        -9.7887   11.8013   -3.4839 H         1 MOL1        0.0528
     70  H31       -10.2647   11.9171   -0.2700 H         1 MOL1        0.0470
     71  H32       -11.3256   12.8011   -1.6601 H         1 MOL1        0.0470
     72  H34        -9.2642   14.1293   -2.4329 H         1 MOL1        0.0485
     73  H35        -7.0418   13.9839   -1.1568 H         1 MOL1        0.0470
     74  H36        -7.7746   12.5991    0.0151 H         1 MOL1        0.0470
     75  H37        -7.4592   12.4811   -3.2210 H         1 MOL1        0.0528
     76  H38        -6.3403   11.6220   -1.8750 H         1 MOL1        0.0528
     77  H39        -7.4862    7.8078   -9.1819 H         1 MOL1        0.0628
     78  H40        -8.2802    8.9949   -7.8461 H         1 MOL1        0.0628
     79  H41        -6.9428    8.8779  -11.4011 H         1 MOL1        0.0601
     80  H42        -7.8701   10.5227  -11.8949 H         1 MOL1        0.0601
     81  H43        -6.4270   11.9412  -10.4691 H         1 MOL1        0.0516
     82  H44        -5.2558   10.6982  -11.4262 H         1 MOL1        0.0516
     83  H45       -11.0144   11.4130   -9.5420 H         1 MOL1        0.0588
     84  H46       -12.0141    9.7991   -9.1411 H         1 MOL1        0.0588
     85  H47       -10.5204   10.3160   -7.9993 H         1 MOL1        0.0588
     86  H         -10.6625   14.8192   -0.7186 H         1 MOL1        0.0435
     87  H          -9.5551   13.9286    0.5951 H         1 MOL1        0.0435
     88  H          -8.8250   15.3348   -0.5159 H         1 MOL1        0.0435
     89  H          -2.9459   14.9135   -6.7056 H         1 MOL1        0.1922
     90  H          -8.4054   10.5166   -1.2237 H         1 MOL1        0.1920
     91  H           2.0689   16.9187   -4.9110 H         1 MOL1        0.2025
     92  H           1.8516   18.3826   -4.5703 H         1 MOL1        0.2025
     93  H          -5.0522   13.3911   -9.3038 H         1 MOL1        0.3291
@<TRIPOS>BOND
     1      2      1 am
     2      2     45 2 
     3      3      2 1 
     4      4      3 1 
     5      5      4 1 
     6      6      5 1 
     7      7      6 1 
     8      8      3 1 
     9      8      7 1 
    10      9      6 1 
    11     10      9 1 
    12     11     10 1 
    13     12     11 1 
    14     13     12 ar
    15     14     13 ar
    16     15     14 ar
    17     16     12 ar
    18     16     15 ar
    19     17     15 1 
    20     18     17 ar
    21     19     18 ar
    22     20     19 ar
    23     21     20 ar
    24     22     17 ar
    25     22     21 ar
    26     23     21 1 
    27     24     23 1 
    28     25     24 1 
    29     26     25 1 
    30     27     26 1 
    31     28     27 1 
    32     29     28 1 
    33     30     29 1 
    34     31     26 1 
    35     31     30 1 
    36     32     20 1 
    37     33     32 1 
    38     34     32 1 
    39     35     32 1 
    40     36     14 1 
    41     37     36 1 
    42     38     37 1 
    43     39     13 1 
    44     39     38 1 
    45     40     37 1 
    46     41     40 2 
    47     42     40 2 
    48     43     40 1 
    49     44     29 1 
    50     46     10 1 
    51      1     91 1 
    52      1     92 1 
    53      6     89 1 
    54     26     90 1 
    55     44     86 1 
    56     44     87 1 
    57     44     88 1 
    58     47     10 1 
    59     48      3 1 
    60     49      4 1 
    61     50      4 1 
    62     51      5 1 
    63     52      5 1 
    64     53      7 1 
    65     54      7 1 
    66     55      8 1 
    67     56      8 1 
    68     57      9 1 
    69     58      9 1 
    70     59     11 1 
    71     60     11 1 
    72     61     18 1 
    73     62     19 1 
    74     63     22 1 
    75     64     24 1 
    76     65     24 1 
    77     66     25 1 
    78     67     25 1 
    79     68     27 1 
    80     69     27 1 
    81     70     28 1 
    82     71     28 1 
    83     72     29 1 
    84     73     30 1 
    85     74     30 1 
    86     75     31 1 
    87     76     31 1 
    88     77     36 1 
    89     78     36 1 
    90     79     38 1 
    91     80     38 1 
    92     81     39 1 
    93     82     39 1 
    94     83     43 1 
    95     84     43 1 
    96     85     43 1 
    97     93     46 1 
@<TRIPOS>SUBSTRUCTURE
     1 MOL1         1 MOLECULE          1 A
