CatS_195
 OpenBabel05281909343D

 93 97  0  0  1  0  0  0  0  0999 V2000
    1.5397   17.6203   -4.8802 N   0  0  0  0  0  0  0  0  0  0  0  0
    0.2641   17.5490   -5.2888 C   0  0  0  0  0  0  0  0  0  0  0  0
   -0.1249   16.1699   -5.7828 C   0  0  1  0  0  0  0  0  0  0  0  0
   -1.1908   15.5860   -4.8381 C   0  0  0  0  0  0  0  0  0  0  0  0
   -1.6668   14.2212   -5.3743 C   0  0  0  0  0  0  0  0  0  0  0  0
   -2.2340   14.3438   -6.7309 N   0  3  1  0  0  0  0  0  0  0  0  0
   -1.2230   14.8908   -7.6589 C   0  0  0  0  0  0  0  0  0  0  0  0
   -0.7219   16.2749   -7.1989 C   0  0  0  0  0  0  0  0  0  0  0  0
   -2.7051   13.0258   -7.1970 C   0  0  0  0  0  0  0  0  0  0  0  0
   -3.4127   13.0569   -8.5709 C   0  0  1  0  0  0  0  0  0  0  0  0
   -3.3400   11.6552   -9.2000 C   0  0  0  0  0  0  0  0  0  0  0  0
   -4.3389   10.6963   -8.7091 N   0  0  0  0  0  0  0  0  0  0  0  0
   -5.5311   10.3253   -9.2407 C   0  0  0  0  0  0  0  0  0  0  0  0
   -6.2050    9.4819   -8.4579 C   0  0  0  0  0  0  0  0  0  0  0  0
   -5.3401    9.2807   -7.3581 C   0  0  0  0  0  0  0  0  0  0  0  0
   -4.2645   10.0228   -7.5357 N   0  0  0  0  0  0  0  0  0  0  0  0
   -5.5280    8.4130   -6.2062 C   0  0  0  0  0  0  0  0  0  0  0  0
   -4.4678    7.7388   -5.6281 C   0  0  0  0  0  0  0  0  0  0  0  0
   -4.6602    6.9419   -4.5280 C   0  0  0  0  0  0  0  0  0  0  0  0
   -5.9103    6.7700   -3.9698 C   0  0  0  0  0  0  0  0  0  0  0  0
   -6.9759    7.4399   -4.5578 C   0  0  0  0  0  0  0  0  0  0  0  0
   -6.7839    8.2539   -5.6508 C   0  0  0  0  0  0  0  0  0  0  0  0
   -8.6621    7.2887   -3.9531 S   0  0  0  0  0  0  0  0  0  0  0  0
   -9.2129    8.9471   -3.4727 C   0  0  0  0  0  0  0  0  0  0  0  0
   -8.0196    9.8152   -3.0210 C   0  0  0  0  0  0  0  0  0  0  0  0
   -8.4071   10.8677   -2.0652 N   0  3  2  0  0  0  0  0  0  0  0  0
   -9.7687   11.3441   -2.3739 C   0  0  0  0  0  0  0  0  0  0  0  0
  -10.2311   12.4110   -1.3619 C   0  0  0  0  0  0  0  0  0  0  0  0
   -9.2438   13.5921   -1.3600 C   0  0  2  0  0  0  0  0  0  0  0  0
   -7.8200   13.0739   -1.0857 C   0  0  0  0  0  0  0  0  0  0  0  0
   -7.4529   11.9948   -2.1230 C   0  0  0  0  0  0  0  0  0  0  0  0
   -5.9451    5.8567   -2.7418 C   0  0  0  0  0  0  0  0  0  0  0  0
   -4.9474    4.8880   -2.7813 F   0  0  0  0  0  0  0  0  0  0  0  0
   -7.1420    5.1659   -2.5932 F   0  0  0  0  0  0  0  0  0  0  0  0
   -5.7380    6.5910   -1.5778 F   0  0  0  0  0  0  0  0  0  0  0  0
   -7.5840    8.9490   -8.8236 C   0  0  0  0  0  0  0  0  0  0  0  0
   -8.2563    9.7460   -9.8750 N   0  0  0  0  0  0  0  0  0  0  0  0
   -7.3180    9.9449  -11.0012 C   0  0  0  0  0  0  0  0  0  0  0  0
   -6.0941   10.7931  -10.5728 C   0  0  0  0  0  0  0  0  0  0  0  0
   -9.7913    9.3101  -10.1701 S   0  0  0  0  0  0  0  0  0  0  0  0
   -9.8656    7.9423   -9.7663 O   0  0  0  0  0  0  0  0  0  0  0  0
  -10.0689    9.5798  -11.5449 O   0  0  0  0  0  0  0  0  0  0  0  0
  -10.9188   10.2890   -9.1311 C   0  0  0  0  0  0  0  0  0  0  0  0
   -9.5602   14.3837   -0.5172 C   0  0  0  0  0  0  0  0  0  0  0  0
   -0.5133   18.4928   -5.2650 O   0  0  0  0  0  0  0  0  0  0  0  0
   -4.5657   13.3626   -8.4239 O   0  0  0  0  0  0  0  0  0  0  0  0
   -2.8850   13.8322   -9.3199 H   0  0  0  0  0  0  0  0  0  0  0  0
    0.8140   15.4248   -5.8331 H   0  0  0  0  0  0  0  0  0  0  0  0
   -0.7251   15.4542   -3.7395 H   0  0  0  0  0  0  0  0  0  0  0  0
   -2.1310   16.3301   -4.7860 H   0  0  0  0  0  0  0  0  0  0  0  0
   -2.5058   13.8240   -4.6129 H   0  0  0  0  0  0  0  0  0  0  0  0
   -0.7430   13.4540   -5.3879 H   0  0  0  0  0  0  0  0  0  0  0  0
   -1.7002   15.0320   -8.7502 H   0  0  0  0  0  0  0  0  0  0  0  0
   -0.2801   14.1498   -7.7228 H   0  0  0  0  0  0  0  0  0  0  0  0
    0.1170   16.6710   -7.9593 H   0  0  0  0  0  0  0  0  0  0  0  0
   -1.6450   17.0419   -7.1910 H   0  0  0  0  0  0  0  0  0  0  0  0
   -3.5298   12.6210   -6.4258 H   0  0  0  0  0  0  0  0  0  0  0  0
   -1.8132   12.2240   -7.2249 H   0  0  0  0  0  0  0  0  0  0  0  0
   -3.4749   11.7688  -10.3873 H   0  0  0  0  0  0  0  0  0  0  0  0
   -2.2549   11.1925   -8.9839 H   0  0  0  0  0  0  0  0  0  0  0  0
   -3.5492    7.8381   -6.0091 H   0  0  0  0  0  0  0  0  0  0  0  0
   -3.8720    6.4760   -4.1248 H   0  0  0  0  0  0  0  0  0  0  0  0
   -7.5650    8.7320   -6.0519 H   0  0  0  0  0  0  0  0  0  0  0  0
   -9.7312    9.4501   -4.4321 H   0  0  0  0  0  0  0  0  0  0  0  0
  -10.0242    8.8693   -2.5918 H   0  0  0  0  0  0  0  0  0  0  0  0
   -7.5949   10.3442   -4.0117 H   0  0  0  0  0  0  0  0  0  0  0  0
   -7.1413    9.1329   -2.5672 H   0  0  0  0  0  0  0  0  0  0  0  0
  -10.5488   10.4350   -2.3161 H   0  0  0  0  0  0  0  0  0  0  0  0
   -9.7887   11.8013   -3.4839 H   0  0  0  0  0  0  0  0  0  0  0  0
  -10.2647   11.9171   -0.2700 H   0  0  0  0  0  0  0  0  0  0  0  0
  -11.3256   12.8011   -1.6601 H   0  0  0  0  0  0  0  0  0  0  0  0
   -9.2642   14.1293   -2.4329 H   0  0  0  0  0  0  0  0  0  0  0  0
   -7.0418   13.9839   -1.1568 H   0  0  0  0  0  0  0  0  0  0  0  0
   -7.7746   12.5991    0.0151 H   0  0  0  0  0  0  0  0  0  0  0  0
   -7.4592   12.4811   -3.2210 H   0  0  0  0  0  0  0  0  0  0  0  0
   -6.3403   11.6220   -1.8750 H   0  0  0  0  0  0  0  0  0  0  0  0
   -7.4862    7.8078   -9.1819 H   0  0  0  0  0  0  0  0  0  0  0  0
   -8.2802    8.9949   -7.8461 H   0  0  0  0  0  0  0  0  0  0  0  0
   -6.9428    8.8779  -11.4011 H   0  0  0  0  0  0  0  0  0  0  0  0
   -7.8701   10.5227  -11.8949 H   0  0  0  0  0  0  0  0  0  0  0  0
   -6.4270   11.9412  -10.4691 H   0  0  0  0  0  0  0  0  0  0  0  0
   -5.2558   10.6982  -11.4262 H   0  0  0  0  0  0  0  0  0  0  0  0
  -11.0144   11.4130   -9.5420 H   0  0  0  0  0  0  0  0  0  0  0  0
  -12.0141    9.7991   -9.1411 H   0  0  0  0  0  0  0  0  0  0  0  0
  -10.5204   10.3160   -7.9993 H   0  0  0  0  0  0  0  0  0  0  0  0
  -10.6625   14.8192   -0.7186 H   0  0  0  0  0  0  0  0  0  0  0  0
   -9.5551   13.9286    0.5951 H   0  0  0  0  0  0  0  0  0  0  0  0
   -8.8250   15.3348   -0.5159 H   0  0  0  0  0  0  0  0  0  0  0  0
   -2.9459   14.9135   -6.7056 H   0  0  0  0  0  0  0  0  0  0  0  0
   -8.4054   10.5166   -1.2237 H   0  0  0  0  0  0  0  0  0  0  0  0
    2.0689   16.9187   -4.9110 H   0  0  0  0  0  0  0  0  0  0  0  0
    1.8516   18.3826   -4.5703 H   0  0  0  0  0  0  0  0  0  0  0  0
   -5.0522   13.3911   -9.3038 H   0  0  0  0  0  0  0  0  0  0  0  0
  1 91  1  0  0  0  0
  1 92  1  0  0  0  0
  2  1  1  0  0  0  0
  2 45  2  0  0  0  0
  3  2  1  0  0  0  0
  3 48  1  6  0  0  0
  4  3  1  0  0  0  0
  5  4  1  0  0  0  0
  6  5  1  0  0  0  0
  6 89  1  1  0  0  0
  7  6  1  0  0  0  0
  8  3  1  0  0  0  0
  8  7  1  0  0  0  0
  9  6  1  0  0  0  0
 10  9  1  0  0  0  0
 10 47  1  6  0  0  0
 11 10  1  0  0  0  0
 12 11  1  0  0  0  0
 13 12  1  0  0  0  0
 14 13  2  0  0  0  0
 15 14  1  0  0  0  0
 16 12  1  0  0  0  0
 16 15  2  0  0  0  0
 17 15  1  0  0  0  0
 18 17  2  0  0  0  0
 19 18  1  0  0  0  0
 20 19  2  0  0  0  0
 21 20  1  0  0  0  0
 22 17  1  0  0  0  0
 22 21  2  0  0  0  0
 23 21  1  0  0  0  0
 24 23  1  0  0  0  0
 25 24  1  0  0  0  0
 26 25  1  0  0  0  0
 26 90  1  1  0  0  0
 27 26  1  0  0  0  0
 28 27  1  0  0  0  0
 29 28  1  0  0  0  0
 29 72  1  6  0  0  0
 30 29  1  0  0  0  0
 31 26  1  0  0  0  0
 31 30  1  0  0  0  0
 32 20  1  0  0  0  0
 33 32  1  0  0  0  0
 34 32  1  0  0  0  0
 35 32  1  0  0  0  0
 36 14  1  0  0  0  0
 37 36  1  0  0  0  0
 38 37  1  0  0  0  0
 39 13  1  0  0  0  0
 39 38  1  0  0  0  0
 40 37  1  0  0  0  0
 41 40  2  0  0  0  0
 42 40  2  0  0  0  0
 43 40  1  0  0  0  0
 44 29  1  0  0  0  0
 44 86  1  0  0  0  0
 44 87  1  0  0  0  0
 44 88  1  0  0  0  0
 46 10  1  0  0  0  0
 49  4  1  0  0  0  0
 50  4  1  0  0  0  0
 51  5  1  0  0  0  0
 52  5  1  0  0  0  0
 53  7  1  0  0  0  0
 54  7  1  0  0  0  0
 55  8  1  0  0  0  0
 56  8  1  0  0  0  0
 57  9  1  0  0  0  0
 58  9  1  0  0  0  0
 59 11  1  0  0  0  0
 60 11  1  0  0  0  0
 61 18  1  0  0  0  0
 62 19  1  0  0  0  0
 63 22  1  0  0  0  0
 64 24  1  0  0  0  0
 65 24  1  0  0  0  0
 66 25  1  0  0  0  0
 67 25  1  0  0  0  0
 68 27  1  0  0  0  0
 69 27  1  0  0  0  0
 70 28  1  0  0  0  0
 71 28  1  0  0  0  0
 73 30  1  0  0  0  0
 74 30  1  0  0  0  0
 75 31  1  0  0  0  0
 76 31  1  0  0  0  0
 77 36  1  0  0  0  0
 78 36  1  0  0  0  0
 79 38  1  0  0  0  0
 80 38  1  0  0  0  0
 81 39  1  0  0  0  0
 82 39  1  0  0  0  0
 83 43  1  0  0  0  0
 84 43  1  0  0  0  0
 85 43  1  0  0  0  0
 93 46  1  0  0  0  0
M  CHG  2   6   1  26   1
M  END
$$$$
