# Molecule written by the XED library from Cresset
@<TRIPOS>MOLECULE
CatS_79
    89     93      1
SMALL
USER_CHARGES
@<TRIPOS>ATOM
      1  C1          0.0489   17.7811   -5.3529 C.3       1 MOL1       -0.1200
      2  C2         -0.2660   16.3551   -5.8340 C.3       1 MOL1       -0.0638
      3  C3         -1.2538   15.6810   -4.8972 C.3       1 MOL1       -0.0797
      4  C4         -1.5609   14.2751   -5.3909 C.3       1 MOL1       -0.0624
      5  N1         -2.1151   14.2890   -6.7482 N.4       1 MOL1       -0.2282
      6  C5         -1.1621   14.9222   -7.6830 C.3       1 MOL1       -0.0624
      7  C6         -0.8059   16.3451   -7.2578 C.3       1 MOL1       -0.0797
      8  C7         -2.4761   12.9208   -7.1928 C.3       1 MOL1       -0.0328
      9  C8         -2.9111   12.8931   -8.6741 C.3       1 MOL1        0.0191
     10  C9         -3.1711   11.4957   -9.2858 C.3       1 MOL1        0.0979
     11  N2         -4.2949   10.6779   -8.7622 N.pl3     1 MOL1       -0.0670
     12  C10        -5.5402   10.4079   -9.2471 C.ar      1 MOL1        0.0572
     13  C11        -6.2649    9.6261   -8.4438 C.ar      1 MOL1       -0.0684
     14  C12        -5.3880    9.3290   -7.3769 C.ar      1 MOL1        0.0392
     15  N3         -4.2540    9.9679   -7.6001 N.2       1 MOL1       -0.2943
     16  C13        -5.5990    8.4481   -6.2289 C.ar      1 MOL1       -0.0066
     17  C14        -4.5370    7.7091   -5.7479 C.ar      1 MOL1       -0.0846
     18  C15        -4.6930    6.8510   -4.6850 C.ar      1 MOL1       -0.0687
     19  C16        -5.9038    6.6870   -4.0420 C.ar      1 MOL1        0.0171
     20  C17        -6.9802    7.4360   -4.5089 C.ar      1 MOL1        0.0480
     21  C18        -6.8169    8.2870   -5.5841 C.ar      1 MOL1       -0.0655
     22  S1         -8.6340    7.4150   -3.7770 S.3       1 MOL1       -0.1783
     23  C19        -9.4051    8.9130   -3.0801 C.3       1 MOL1       -0.0087
     24  C20        -8.2982    9.9501   -2.7838 C.3       1 MOL1       -0.0441
     25  N4         -8.5919   11.0280   -1.8162 N.4       1 MOL1       -0.2284
     26  C21        -7.6731   12.1480   -2.0159 C.3       1 MOL1       -0.0566
     27  C22        -7.8920   13.2301   -0.9670 C.3       1 MOL1       -0.0467
     28  C23        -9.3211   13.7401   -0.9650 C.3       1 MOL1        0.0498
     29  C24       -10.2821   12.5620   -0.9010 C.3       1 MOL1       -0.0467
     30  C25        -9.9669   11.5091   -1.9592 C.3       1 MOL1       -0.0566
     31  C26        -5.8751    5.6939   -2.8790 C.3       1 MOL1        0.4149
     32  F2         -5.6702    6.2981   -1.6410 F         1 MOL1       -0.1514
     33  F3         -4.8500    4.7720   -2.9961 F         1 MOL1       -0.1514
     34  F4         -7.0691    4.9890   -2.7890 F         1 MOL1       -0.1514
     35  C27        -7.6942    9.1997   -8.7798 C.3       1 MOL1        0.1169
     36  N5         -8.3089    9.7778  -10.0022 N.3       1 MOL1       -0.4606
     37  C28        -7.2711    9.9599  -11.0359 C.3       1 MOL1        0.0844
     38  C29        -6.1331   10.8799  -10.5609 C.3       1 MOL1       -0.0158
     39  S2         -9.7621    9.1079  -10.3609 S.3       1 MOL1        0.4316
     40  O1        -10.0940    9.1551  -11.7479 O.2       1 MOL1       -0.3139
     41  O2         -9.8229    7.7359   -9.9771 O.2       1 MOL1       -0.3139
     42  C30       -10.9370   10.1050   -9.3968 C.3       1 MOL1        0.0421
     43  O3         -4.0841   13.7000   -8.8601 O.3       1 MOL1       -0.4408
     44  H29        -9.4669   14.4410   -0.0018 F         1 MOL1       -0.2169
     45  F1         -9.5440   14.4890   -2.1180 H         1 MOL1        0.0735
     46  H1         -1.9339   13.3299   -9.2059 H         1 MOL1        0.0680
     47  H2         -0.9600   18.4298   -5.3150 H         1 MOL1        0.0435
     48  H3          0.5290   17.7291   -4.2540 H         1 MOL1        0.0435
     49  H4          0.8330   18.2959   -6.1021 H         1 MOL1        0.0435
     50  H5          0.7580   15.7279   -5.8041 H         1 MOL1        0.0485
     51  H6         -2.2781   16.3051   -4.8459 H         1 MOL1        0.0470
     52  H7         -0.7688   15.6040   -3.8020 H         1 MOL1        0.0470
     53  H8         -0.5609   13.6121   -5.3620 H         1 MOL1        0.0529
     54  H9         -2.3700   13.8382   -4.6211 H         1 MOL1        0.0529
     55  H10        -1.7390   14.9248   -8.7362 H         1 MOL1        0.0529
     56  H11        -0.1899   14.2320   -7.8371 H         1 MOL1        0.0529
     57  H12        -1.7799   17.0361   -7.3851 H         1 MOL1        0.0470
     58  H13         0.0162   16.7691   -8.0250 H         1 MOL1        0.0470
     59  H14        -3.3530   12.4800   -6.5030 H         1 MOL1        0.0549
     60  H15        -1.5030   12.2250   -7.0891 H         1 MOL1        0.0549
     61  H16        -2.1681   10.8539   -9.1409 H         1 MOL1        0.0624
     62  H17        -3.3410   11.6390  -10.4651 H         1 MOL1        0.0624
     63  H18        -3.6401    7.7949   -6.1829 H         1 MOL1        0.0910
     64  H19        -3.8991    6.3320   -4.3700 H         1 MOL1        0.0908
     65  H20        -7.6050    8.8100   -5.9048 H         1 MOL1        0.0929
     66  H21       -10.0010    8.6370   -2.0759 H         1 MOL1        0.0553
     67  H22       -10.1293    9.4432   -3.8749 H         1 MOL1        0.0553
     68  H23        -7.3610    9.3350   -2.3551 H         1 MOL1        0.0547
     69  H24        -7.9699   10.4361   -3.8320 H         1 MOL1        0.0547
     70  H25        -7.8140   12.6391   -3.1030 H         1 MOL1        0.0529
     71  H26        -6.5581   11.7099   -1.9542 H         1 MOL1        0.0529
     72  H27        -7.6108   12.8141    0.1240 H         1 MOL1        0.0497
     73  H28        -7.1960   14.1780   -1.2140 H         1 MOL1        0.0497
     74  H30       -10.2020   12.0832    0.1970 H         1 MOL1        0.0497
     75  H31       -11.4081   12.9490   -1.0611 H         1 MOL1        0.0497
     76  H32       -10.0921   11.9881   -3.0519 H         1 MOL1        0.0529
     77  H33       -10.7500   10.6070   -1.8399 H         1 MOL1        0.0529
     78  H34        -8.4072    9.5060   -7.8653 H         1 MOL1        0.0628
     79  H35        -7.6970    8.0050   -8.8839 H         1 MOL1        0.0628
     80  H36        -7.7042   10.5312  -11.9961 H         1 MOL1        0.0601
     81  H37        -6.8282    8.8930  -11.3600 H         1 MOL1        0.0601
     82  H38        -6.5319   12.0059  -10.4431 H         1 MOL1        0.0516
     83  H39        -5.3500   10.8068  -11.4581 H         1 MOL1        0.0516
     84  H40       -10.8769   11.2569   -9.7341 H         1 MOL1        0.0588
     85  H41       -12.0491    9.7079   -9.6159 H         1 MOL1        0.0588
     86  H42       -10.7199    9.9971   -8.2231 H         1 MOL1        0.0588
     87  H43        -3.9901   14.6071   -8.4399 H         1 MOL1        0.3291
     88  H          -2.8752   14.7924   -6.7320 H         1 MOL1        0.1921
     89  H          -8.4932   10.6973   -0.9709 H         1 MOL1        0.1921
@<TRIPOS>BOND
     1      2      1 1 
     2      3      2 1 
     3      4      3 1 
     4      5      4 1 
     5      6      5 1 
     6      7      2 1 
     7      7      6 1 
     8      8      5 1 
     9      9      8 1 
    10     10      9 1 
    11     11     10 1 
    12     12     11 ar
    13     13     12 ar
    14     14     13 ar
    15     15     11 ar
    16     15     14 ar
    17     16     14 1 
    18     17     16 ar
    19     18     17 ar
    20     19     18 ar
    21     20     19 ar
    22     21     16 ar
    23     21     20 ar
    24     22     20 1 
    25     23     22 1 
    26     24     23 1 
    27     25     24 1 
    28     26     25 1 
    29     27     26 1 
    30     28     27 1 
    31     29     28 1 
    32     30     25 1 
    33     30     29 1 
    34     31     19 1 
    35     32     31 1 
    36     33     31 1 
    37     34     31 1 
    38     35     13 1 
    39     36     35 1 
    40     37     36 1 
    41     38     12 1 
    42     38     37 1 
    43     39     36 1 
    44     40     39 2 
    45     41     39 2 
    46     42     39 1 
    47     43      9 1 
    48     44     28 1 
    49     45     28 1 
    50     46      9 1 
    51     47      1 1 
    52     48      1 1 
    53     49      1 1 
    54     50      2 1 
    55     51      3 1 
    56     52      3 1 
    57     53      4 1 
    58     54      4 1 
    59     55      6 1 
    60     56      6 1 
    61     57      7 1 
    62     58      7 1 
    63     59      8 1 
    64     60      8 1 
    65     61     10 1 
    66     62     10 1 
    67     63     17 1 
    68     64     18 1 
    69     65     21 1 
    70     66     23 1 
    71     67     23 1 
    72     68     24 1 
    73     69     24 1 
    74     70     26 1 
    75     71     26 1 
    76     72     27 1 
    77     73     27 1 
    78     74     29 1 
    79     75     29 1 
    80     76     30 1 
    81     77     30 1 
    82     78     35 1 
    83     79     35 1 
    84     80     37 1 
    85     81     37 1 
    86     82     38 1 
    87     83     38 1 
    88     84     42 1 
    89     85     42 1 
    90     86     42 1 
    91     87     43 1 
    92     88      5 1 
    93     89     25 1 
@<TRIPOS>SUBSTRUCTURE
     1 MOL1         1 MOLECULE          1 A
