lig_17124-1
     RDKit          3D

 46 47  0  0  0  0  0  0  0  0999 V2000
   24.0820   12.3920   30.2420 C   0  0  0  0  0  0  0  0  0  0  0  0
   23.3500   11.0660   30.4630 C   0  0  0  0  0  0  0  0  0  0  0  0
   22.2120   11.3270   31.2790 O   0  0  0  0  0  0  0  0  0  0  0  0
   21.4130   10.2770   31.6980 C   0  0  0  0  0  0  0  0  0  0  0  0
   21.7570    9.0270   31.2850 N   0  0  0  0  0  0  0  0  0  0  0  0
   20.9810    7.9970   31.6570 C   0  0  0  0  0  0  0  0  0  0  0  0
   19.8710    8.1420   32.4770 C   0  0  0  0  0  0  0  0  0  0  0  0
   19.5220    9.4140   32.8940 C   0  0  0  0  0  0  0  0  0  0  0  0
   18.3830    9.4960   33.6860 N   0  0  0  0  0  0  0  0  0  0  0  0
   20.2920   10.5200   32.5000 C   0  0  0  0  0  0  0  0  0  0  0  0
   19.9660   11.8900   32.8770 C   0  0  0  0  0  0  0  0  0  0  0  0
   19.7130   12.9810   33.1710 N   0  0  0  0  0  0  0  0  0  0  0  0
   21.4440    6.8150   31.1150 N   0  0  0  0  0  0  0  0  0  0  0  0
   20.8640    5.6150   31.0310 C   0  0  0  0  0  0  0  0  0  0  0  0
   19.7400    5.3500   31.4510 O   0  0  0  0  0  0  0  0  0  0  0  0
   21.6500    4.5470   30.2800 C   0  0  0  0  0  0  0  0  0  0  0  0
   23.0250    4.2590   30.8770 C   0  0  0  0  0  0  0  0  0  0  0  0
   24.1220    5.0800   30.5740 C   0  0  0  0  0  0  0  0  0  0  0  0
   23.8940    6.1760   29.7600 O   0  0  0  0  0  0  0  0  0  0  0  0
   24.9260    7.1420   29.5740 C   0  0  0  0  0  0  0  0  0  0  0  0
   25.3760    4.7490   31.1030 C   0  0  0  0  0  0  0  0  0  0  0  0
   25.5280    3.6470   31.9430 C   0  0  0  0  0  0  0  0  0  0  0  0
   27.2650    3.2510   32.6230 Br  0  0  0  0  0  0  0  0  0  0  0  0
   24.4330    2.8400   32.2700 C   0  0  0  0  0  0  0  0  0  0  0  0
   23.1820    3.1560   31.7230 C   0  0  0  0  0  0  0  0  0  0  0  0
   24.6460    1.7800   33.1310 O   0  0  0  0  0  0  0  0  0  0  0  0
   23.7080    0.7070   33.1600 C   0  0  0  0  0  0  0  0  0  0  0  0
   24.9660   12.2530   29.6210 H   0  0  0  0  0  0  0  0  0  0  0  0
   23.4330   13.1120   29.7440 H   0  0  0  0  0  0  0  0  0  0  0  0
   24.3970   12.8270   31.1900 H   0  0  0  0  0  0  0  0  0  0  0  0
   23.0410   10.6380   29.5060 H   0  0  0  0  0  0  0  0  0  0  0  0
   24.0190   10.3520   30.9490 H   0  0  0  0  0  0  0  0  0  0  0  0
   19.2760    7.2950   32.7750 H   0  0  0  0  0  0  0  0  0  0  0  0
   17.9030    8.6480   33.9730 H   0  0  0  0  0  0  0  0  0  0  0  0
   17.9980   10.4020   33.9430 H   0  0  0  0  0  0  0  0  0  0  0  0
   22.3520    6.9230   30.6910 H   0  0  0  0  0  0  0  0  0  0  0  0
   21.0720    3.6290   30.2150 H   0  0  0  0  0  0  0  0  0  0  0  0
   21.7630    4.9130   29.2650 H   0  0  0  0  0  0  0  0  0  0  0  0
   24.5480    7.9550   28.9540 H   0  0  0  0  0  0  0  0  0  0  0  0
   25.2470    7.5790   30.5210 H   0  0  0  0  0  0  0  0  0  0  0  0
   25.7900    6.7170   29.0620 H   0  0  0  0  0  0  0  0  0  0  0  0
   26.2490    5.3380   30.8750 H   0  0  0  0  0  0  0  0  0  0  0  0
   22.3240    2.5420   31.9460 H   0  0  0  0  0  0  0  0  0  0  0  0
   24.0780   -0.0690   33.8310 H   0  0  0  0  0  0  0  0  0  0  0  0
   22.7310    1.0100   33.5310 H   0  0  0  0  0  0  0  0  0  0  0  0
   23.5880    0.2530   32.1770 H   0  0  0  0  0  0  0  0  0  0  0  0
  1  2  1  0
  1 28  1  0
  1 29  1  0
  1 30  1  0
  2  3  1  0
  2 31  1  0
  2 32  1  0
  3  4  1  0
  4 10  2  0
  4  5  1  0
  5  6  2  0
  6  7  1  0
  6 13  1  0
  7  8  2  0
  7 33  1  0
  8  9  1  0
  8 10  1  0
  9 34  1  0
  9 35  1  0
 10 11  1  0
 11 12  3  0
 13 14  1  0
 13 36  1  0
 14 15  2  0
 14 16  1  0
 16 17  1  0
 16 37  1  0
 16 38  1  0
 17 25  1  0
 17 18  2  0
 18 19  1  0
 18 21  1  0
 19 20  1  0
 20 39  1  0
 20 40  1  0
 20 41  1  0
 21 22  2  0
 21 42  1  0
 22 23  1  0
 22 24  1  0
 24 25  2  0
 24 26  1  0
 25 43  1  0
 26 27  1  0
 27 44  1  0
 27 45  1  0
 27 46  1  0
M  END
$$$$
