@<TRIPOS>MOLECULE
lig_CAT-13n
 44 47 0 0 0
SMALL
GASTEIGER

@<TRIPOS>ATOM
      1 C          13.4100   -2.4800   -0.9300 C.2     1  LIG1        0.3298
      2 N          15.3100   -2.5600    0.5400 N.2     1  LIG1       -0.2560
      3 O          12.6900   -2.3200   -1.8900 O.2     1  LIG1       -0.2521
      4 C          14.9600   -2.7100   -0.9300 C.3     1  LIG1        0.2612
      5 N          13.0100   -2.4300    0.3900 N.am    1  LIG1       -0.1640
      6 C          14.1700   -2.4900    1.2300 C.2     1  LIG1        0.3373
      7 N          14.1100   -2.3700    2.5600 N.pl3   1  LIG1       -0.2538
      8 C          11.6100   -2.2400    0.7900 C.3     1  LIG1        0.0572
      9 C          16.0300    4.0400   -0.2100 C.ar    1  LIG1        0.0416
     10 CL         16.7800    4.7200    1.2200 Cl      1  LIG1       -0.0835
     11 C          15.2400   -4.1300   -1.4300 C.ar    1  LIG1        0.1849
     12 N          16.3700   -4.8200   -1.0300 N.ar    1  LIG1       -0.2359
     13 C          16.6000   -6.1300   -1.4400 C.ar    1  LIG1        0.0312
     14 C          15.7100   -6.7600   -2.2800 C.ar    1  LIG1       -0.0254
     15 C          14.5900   -6.0800   -2.7200 C.ar    1  LIG1        0.0312
     16 N          14.3500   -4.7800   -2.3100 N.ar    1  LIG1       -0.2359
     17 C          15.6800   -1.5900   -1.7100 C.ar    1  LIG1        0.0109
     18 C          16.5600   -1.8900   -2.7400 C.ar    1  LIG1       -0.0540
     19 C          17.1500   -0.8800   -3.4700 C.ar    1  LIG1       -0.0608
     20 C          16.8900    0.4500   -3.1700 C.ar    1  LIG1       -0.0540
     21 C          16.0300    0.7800   -2.1200 C.ar    1  LIG1       -0.0174
     22 C          15.4100   -0.2600   -1.4000 C.ar    1  LIG1       -0.0463
     23 C          15.1500    4.7400   -0.9300 C.ar    1  LIG1       -0.0434
     24 H          14.8900    5.7400   -0.6000 H       1  LIG1        0.0632
     25 C          16.3300    2.8000   -0.6300 C.ar    1  LIG1       -0.0357
     26 C          15.7700    2.2100   -1.7600 C.ar    1  LIG1       -0.0165
     27 C          14.8800    2.9800   -2.5000 C.ar    1  LIG1       -0.0539
     28 H          14.4300    2.5800   -3.4000 H       1  LIG1        0.0624
     29 C          14.5600    4.2600   -2.0800 C.ar    1  LIG1       -0.0598
     30 H          13.8700    4.8800   -2.6500 H       1  LIG1        0.0618
     31 H          17.0500    2.2200   -0.0600 H       1  LIG1        0.0638
     32 H          14.7300   -0.0100   -0.5900 H       1  LIG1        0.0628
     33 H          17.3500    1.2400   -3.7600 H       1  LIG1        0.0624
     34 H          16.8000   -2.9300   -2.9600 H       1  LIG1        0.0622
     35 H          17.8300   -1.1200   -4.2900 H       1  LIG1        0.0618
     36 H          17.4900   -6.6600   -1.1100 H       1  LIG1        0.0831
     37 H          13.8800   -6.5700   -3.3900 H       1  LIG1        0.0831
     38 H          15.8800   -7.7900   -2.6000 H       1  LIG1        0.0648
     39 H          13.2200   -2.2800    3.0200 H       1  LIG1        0.2411
     40 H          14.9600   -2.3800    3.1100 H       1  LIG1        0.2411
     41 H          11.3100   -1.2100    0.6100 H       1  LIG1        0.0602
     42 H          11.5000   -2.4700    1.8500 H       1  LIG1        0.0602
     43 H          10.9700   -2.9100    0.2100 H       1  LIG1        0.0602
     44 H          16.1960   -2.5105    1.0223 H       1  LIG1        0.2593
@<TRIPOS>BOND
     1     1     3    2
     2     1     4    1
     3     1     5   am
     4     2     4    1
     5     2     6    2
     6     2    44    1
     7     4    17    1
     8     4    11    1
     9     5     8    1
    10     5     6    1
    11     6     7    1
    12     7    39    1
    13     7    40    1
    14     8    43    1
    15     8    41    1
    16     8    42    1
    17     9    23   ar
    18     9    25   ar
    19     9    10    1
    20    11    16   ar
    21    11    12   ar
    22    12    13   ar
    23    13    14   ar
    24    13    36    1
    25    14    15   ar
    26    14    38    1
    27    15    37    1
    28    15    16   ar
    29    17    18   ar
    30    17    22   ar
    31    18    19   ar
    32    18    34    1
    33    19    35    1
    34    19    20   ar
    35    20    33    1
    36    20    21   ar
    37    21    26    1
    38    21    22   ar
    39    22    32    1
    40    23    29   ar
    41    23    24    1
    42    25    26   ar
    43    25    31    1
    44    26    27   ar
    45    27    28    1
    46    27    29   ar
    47    29    30    1
