@<TRIPOS>MOLECULE
lig_CAT-13k
 45 48 0 0 0
SMALL
GASTEIGER

@<TRIPOS>ATOM
      1 C          13.4100   -2.5000   -0.8500 C.2     1  LIG1        0.3267
      2 N          15.3800   -2.5400    0.5200 N.2     1  LIG1       -0.2584
      3 O          12.6400   -2.3700   -1.7800 O.2     1  LIG1       -0.2522
      4 C          14.9600   -2.7100   -0.9300 C.3     1  LIG1        0.2289
      5 N          13.0700   -2.4500    0.4800 N.am    1  LIG1       -0.1641
      6 C          14.2800   -2.4800    1.2600 C.2     1  LIG1        0.3372
      7 N          14.2800   -2.3500    2.6000 N.pl3   1  LIG1       -0.2538
      8 C          11.6900   -2.2800    0.9500 C.3     1  LIG1        0.0572
      9 C          15.8400    4.0300   -0.2700 C.ar    1  LIG1        0.0416
     10 CL         16.5200    4.6900    1.2100 Cl      1  LIG1       -0.0835
     11 C          15.2400   -4.1300   -1.4300 C.ar    1  LIG1        0.0253
     12 C          16.3700   -4.8200   -1.0300 C.ar    1  LIG1        0.0352
     13 H          17.0800   -4.3400   -0.3800 H       1  LIG1        0.0834
     14 N          16.6000   -6.1300   -1.4400 N.ar    1  LIG1       -0.2628
     15 C          15.7100   -6.7600   -2.2800 C.ar    1  LIG1        0.0276
     16 C          14.5900   -6.0800   -2.7200 C.ar    1  LIG1       -0.0432
     17 C          14.3500   -4.7800   -2.3100 C.ar    1  LIG1       -0.0513
     18 H          13.4800   -4.2500   -2.6600 H       1  LIG1        0.0623
     19 C          15.6200   -1.5900   -1.7500 C.ar    1  LIG1        0.0078
     20 C          16.4600   -1.8800   -2.8200 C.ar    1  LIG1       -0.0541
     21 C          17.0000   -0.8700   -3.5900 C.ar    1  LIG1       -0.0608
     22 C          16.7200    0.4600   -3.2900 C.ar    1  LIG1       -0.0540
     23 C          15.9100    0.7800   -2.2000 C.ar    1  LIG1       -0.0174
     24 C          15.3500   -0.2500   -1.4500 C.ar    1  LIG1       -0.0464
     25 C          15.0000    4.7500   -1.0200 C.ar    1  LIG1       -0.0434
     26 H          14.7300    5.7400   -0.6900 H       1  LIG1        0.0632
     27 C          16.1500    2.7900   -0.6800 C.ar    1  LIG1       -0.0357
     28 C          15.6400    2.2100   -1.8400 C.ar    1  LIG1       -0.0165
     29 C          14.8000    3.0000   -2.6200 C.ar    1  LIG1       -0.0539
     30 H          14.3900    2.6100   -3.5400 H       1  LIG1        0.0624
     31 C          14.4700    4.2800   -2.2100 C.ar    1  LIG1       -0.0598
     32 H          13.8100    4.9100   -2.8000 H       1  LIG1        0.0618
     33 H          16.8300    2.2000   -0.0800 H       1  LIG1        0.0638
     34 H          14.7000   -0.0100   -0.6100 H       1  LIG1        0.0628
     35 H          17.1400    1.2500   -3.9100 H       1  LIG1        0.0624
     36 H          16.7000   -2.9200   -3.0500 H       1  LIG1        0.0622
     37 H          17.6300   -1.1100   -4.4400 H       1  LIG1        0.0618
     38 H          13.8800   -6.5700   -3.3900 H       1  LIG1        0.0633
     39 H          15.8800   -7.7900   -2.6000 H       1  LIG1        0.0829
     40 H          13.4100   -2.2700    3.1000 H       1  LIG1        0.2411
     41 H          15.1500   -2.3400    3.1000 H       1  LIG1        0.2411
     42 H          11.3600   -1.2600    0.7700 H       1  LIG1        0.0602
     43 H          11.6300   -2.5000    2.0100 H       1  LIG1        0.0602
     44 H          11.0300   -2.9600    0.4100 H       1  LIG1        0.0602
     45 H          16.2876   -2.4728    0.9580 H       1  LIG1        0.2592
@<TRIPOS>BOND
     1     1     3    2
     2     1     4    1
     3     1     5   am
     4     2     4    1
     5     2     6    2
     6     2    45    1
     7     4    19    1
     8     4    11    1
     9     5     8    1
    10     5     6    1
    11     6     7    1
    12     7    40    1
    13     7    41    1
    14     8    44    1
    15     8    42    1
    16     8    43    1
    17     9    25   ar
    18     9    27   ar
    19     9    10    1
    20    11    17   ar
    21    11    12   ar
    22    12    14   ar
    23    12    13    1
    24    14    15   ar
    25    15    16   ar
    26    15    39    1
    27    16    38    1
    28    16    17   ar
    29    17    18    1
    30    19    20   ar
    31    19    24   ar
    32    20    21   ar
    33    20    36    1
    34    21    37    1
    35    21    22   ar
    36    22    35    1
    37    22    23   ar
    38    23    28    1
    39    23    24   ar
    40    24    34    1
    41    25    31   ar
    42    25    26    1
    43    27    28   ar
    44    27    33    1
    45    28    29   ar
    46    29    30    1
    47    29    31   ar
    48    31    32    1
