@<TRIPOS>MOLECULE
lig_CAT-13m
 44 47 0 0 0
SMALL
GASTEIGER

@<TRIPOS>ATOM
      1 C          13.4100   -2.5000   -0.8500 C.2     1  LIG1        0.3268
      2 N          15.3800   -2.5400    0.5200 N.2     1  LIG1       -0.2584
      3 O          12.6400   -2.3700   -1.7800 O.2     1  LIG1       -0.2522
      4 C          14.9600   -2.7100   -0.9300 C.3     1  LIG1        0.2303
      5 N          13.0700   -2.4500    0.4800 N.am    1  LIG1       -0.1641
      6 C          14.2800   -2.4800    1.2600 C.2     1  LIG1        0.3372
      7 N          14.2800   -2.3500    2.6000 N.pl3   1  LIG1       -0.2538
      8 C          11.6900   -2.2800    0.9500 C.3     1  LIG1        0.0572
      9 C          15.9500    4.0700   -0.3300 C.ar    1  LIG1        0.0416
     10 CL         16.7500    4.7700    1.0700 Cl      1  LIG1       -0.0835
     11 C          15.2400   -4.1300   -1.4300 C.ar    1  LIG1        0.0434
     12 C          16.3700   -4.8200   -1.0300 C.ar    1  LIG1        0.0384
     13 N          16.6000   -6.1300   -1.4400 N.ar    1  LIG1       -0.2433
     14 C          15.7100   -6.7600   -2.2800 C.ar    1  LIG1        0.1159
     15 N          14.5900   -6.0800   -2.7200 N.ar    1  LIG1       -0.2433
     16 C          14.3500   -4.7800   -2.3100 C.ar    1  LIG1        0.0384
     17 C          15.6200   -1.5900   -1.7500 C.ar    1  LIG1        0.0079
     18 C          16.4600   -1.8800   -2.8200 C.ar    1  LIG1       -0.0541
     19 C          17.0000   -0.8700   -3.5900 C.ar    1  LIG1       -0.0608
     20 C          16.7200    0.4600   -3.2900 C.ar    1  LIG1       -0.0540
     21 C          15.9100    0.7800   -2.2000 C.ar    1  LIG1       -0.0174
     22 C          15.3500   -0.2500   -1.4500 C.ar    1  LIG1       -0.0464
     23 C          15.0200    4.7500   -1.0100 C.ar    1  LIG1       -0.0434
     24 H          14.7600    5.7400   -0.6700 H       1  LIG1        0.0632
     25 C          16.2400    2.8300   -0.7500 C.ar    1  LIG1       -0.0357
     26 C          15.6400    2.2100   -1.8400 C.ar    1  LIG1       -0.0165
     27 C          14.7000    2.9600   -2.5400 C.ar    1  LIG1       -0.0539
     28 H          14.2200    2.5500   -3.4200 H       1  LIG1        0.0624
     29 C          14.3900    4.2500   -2.1200 C.ar    1  LIG1       -0.0598
     30 H          13.6500    4.8400   -2.6600 H       1  LIG1        0.0618
     31 H          17.0000    2.2700   -0.2000 H       1  LIG1        0.0638
     32 H          14.7000   -0.0100   -0.6100 H       1  LIG1        0.0628
     33 H          17.1400    1.2500   -3.9100 H       1  LIG1        0.0624
     34 H          16.7000   -2.9200   -3.0500 H       1  LIG1        0.0622
     35 H          17.6300   -1.1100   -4.4400 H       1  LIG1        0.0618
     36 H          13.4700   -4.2500   -2.6700 H       1  LIG1        0.0835
     37 H          15.8800   -7.7900   -2.6000 H       1  LIG1        0.1047
     38 H          17.0900   -4.3300   -0.3700 H       1  LIG1        0.0835
     39 H          13.4100   -2.2700    3.1000 H       1  LIG1        0.2411
     40 H          15.1500   -2.3400    3.1000 H       1  LIG1        0.2411
     41 H          11.3600   -1.2600    0.7700 H       1  LIG1        0.0602
     42 H          11.6300   -2.5000    2.0100 H       1  LIG1        0.0602
     43 H          11.0300   -2.9600    0.4100 H       1  LIG1        0.0602
     44 H          16.2876   -2.4728    0.9580 H       1  LIG1        0.2592
@<TRIPOS>BOND
     1     1     3    2
     2     1     4    1
     3     1     5   am
     4     2     4    1
     5     2     6    2
     6     2    44    1
     7     4    17    1
     8     4    11    1
     9     5     8    1
    10     5     6    1
    11     6     7    1
    12     7    39    1
    13     7    40    1
    14     8    43    1
    15     8    41    1
    16     8    42    1
    17     9    23   ar
    18     9    25   ar
    19     9    10    1
    20    11    16   ar
    21    11    12   ar
    22    12    13   ar
    23    12    38    1
    24    13    14   ar
    25    14    15   ar
    26    14    37    1
    27    15    16   ar
    28    16    36    1
    29    17    18   ar
    30    17    22   ar
    31    18    19   ar
    32    18    34    1
    33    19    35    1
    34    19    20   ar
    35    20    33    1
    36    20    21   ar
    37    21    26    1
    38    21    22   ar
    39    22    32    1
    40    23    29   ar
    41    23    24    1
    42    25    26   ar
    43    25    31    1
    44    26    27   ar
    45    27    28    1
    46    27    29   ar
    47    29    30    1
