@<TRIPOS>MOLECULE
lig_CAT-4m
 48 51 0 0 0
SMALL
GASTEIGER

@<TRIPOS>ATOM
      1 C          13.4100   -2.5000   -0.8500 C.2     1  LIG1        0.3267
      2 N          15.3800   -2.5400    0.5200 N.2     1  LIG1       -0.2585
      3 O          12.6400   -2.3700   -1.7800 O.2     1  LIG1       -0.2522
      4 C          14.9600   -2.7100   -0.9300 C.3     1  LIG1        0.2275
      5 N          13.0700   -2.4500    0.4800 N.am    1  LIG1       -0.1641
      6 C          14.2800   -2.4800    1.2600 C.2     1  LIG1        0.3372
      7 N          14.2800   -2.3500    2.6000 N.pl3   1  LIG1       -0.2538
      8 C          11.6900   -2.2800    0.9500 C.3     1  LIG1        0.0572
      9 C          15.7300    4.0000   -0.2200 C.ar    1  LIG1       -0.0318
     10 C          16.1700    4.5000    1.0500 C.3     1  LIG1       -0.0383
     11 H          16.6900    3.8800    1.5600 H       1  LIG1        0.0278
     12 H          15.2900    4.7600    1.6300 H       1  LIG1        0.0278
     13 H          16.7700    5.3900    0.8700 H       1  LIG1        0.0278
     14 C          15.2400   -4.1300   -1.4300 C.ar    1  LIG1        0.0072
     15 C          16.3700   -4.8200   -1.0300 C.ar    1  LIG1       -0.0541
     16 C          16.6000   -6.1300   -1.4400 C.ar    1  LIG1       -0.0614
     17 C          15.7100   -6.7600   -2.2800 C.ar    1  LIG1       -0.0617
     18 C          14.5900   -6.0800   -2.7200 C.ar    1  LIG1       -0.0614
     19 C          14.3500   -4.7800   -2.3100 C.ar    1  LIG1       -0.0541
     20 C          15.6200   -1.5900   -1.7500 C.ar    1  LIG1        0.0078
     21 C          16.4600   -1.8800   -2.8200 C.ar    1  LIG1       -0.0541
     22 C          17.0000   -0.8700   -3.5900 C.ar    1  LIG1       -0.0608
     23 C          16.7200    0.4600   -3.2900 C.ar    1  LIG1       -0.0540
     24 C          15.9100    0.7800   -2.2000 C.ar    1  LIG1       -0.0160
     25 C          15.3500   -0.2500   -1.4500 C.ar    1  LIG1       -0.0464
     26 C          14.9900    4.7500   -1.0400 C.ar    1  LIG1        0.0305
     27 H          14.7100    5.7400   -0.7200 H       1  LIG1        0.0832
     28 C          16.0400    2.7600   -0.6300 C.ar    1  LIG1       -0.0482
     29 C          15.6400    2.2100   -1.8400 C.ar    1  LIG1        0.0005
     30 C          14.9000    3.0400   -2.6800 C.ar    1  LIG1        0.0353
     31 H          14.5800    2.6800   -3.6500 H       1  LIG1        0.0836
     32 N          14.5600    4.3200   -2.2800 N.ar    1  LIG1       -0.2624
     33 H          16.6500    2.1400    0.0300 H       1  LIG1        0.0627
     34 H          14.7000   -0.0100   -0.6100 H       1  LIG1        0.0628
     35 H          17.1400    1.2500   -3.9100 H       1  LIG1        0.0624
     36 H          16.7000   -2.9200   -3.0500 H       1  LIG1        0.0622
     37 H          17.6300   -1.1100   -4.4400 H       1  LIG1        0.0618
     38 H          13.4700   -4.2500   -2.6700 H       1  LIG1        0.0622
     39 H          17.4900   -6.6600   -1.1100 H       1  LIG1        0.0618
     40 H          13.8800   -6.5700   -3.3900 H       1  LIG1        0.0618
     41 H          15.8800   -7.7900   -2.6000 H       1  LIG1        0.0618
     42 H          17.0900   -4.3300   -0.3700 H       1  LIG1        0.0622
     43 H          13.4100   -2.2700    3.1000 H       1  LIG1        0.2411
     44 H          15.1500   -2.3400    3.1000 H       1  LIG1        0.2411
     45 H          11.3600   -1.2600    0.7700 H       1  LIG1        0.0602
     46 H          11.6300   -2.5000    2.0100 H       1  LIG1        0.0602
     47 H          11.0300   -2.9600    0.4100 H       1  LIG1        0.0602
     48 H          16.2876   -2.4728    0.9580 H       1  LIG1        0.2592
@<TRIPOS>BOND
     1     1     3    2
     2     1     4    1
     3     1     5   am
     4     2     4    1
     5     2     6    2
     6     2    48    1
     7     4    20    1
     8     4    14    1
     9     5     8    1
    10     5     6    1
    11     6     7    1
    12     7    43    1
    13     7    44    1
    14     8    47    1
    15     8    45    1
    16     8    46    1
    17     9    26   ar
    18     9    28   ar
    19     9    10    1
    20    10    13    1
    21    10    11    1
    22    10    12    1
    23    14    19   ar
    24    14    15   ar
    25    15    16   ar
    26    15    42    1
    27    16    17   ar
    28    16    39    1
    29    17    18   ar
    30    17    41    1
    31    18    40    1
    32    18    19   ar
    33    19    38    1
    34    20    21   ar
    35    20    25   ar
    36    21    22   ar
    37    21    36    1
    38    22    37    1
    39    22    23   ar
    40    23    35    1
    41    23    24   ar
    42    24    29    1
    43    24    25   ar
    44    25    34    1
    45    26    32   ar
    46    26    27    1
    47    28    29   ar
    48    28    33    1
    49    29    30   ar
    50    30    31    1
    51    30    32   ar
