@<TRIPOS>MOLECULE
lig_CAT-13a
 39 41 0 0 0
SMALL
GASTEIGER

@<TRIPOS>ATOM
      1 C          13.4100   -2.5300   -0.8600 C.2     1  LIG1        0.3216
      2 N          15.3600   -2.5400    0.5300 N.2     1  LIG1       -0.2624
      3 O          12.6400   -2.4100   -1.8000 O.2     1  LIG1       -0.2526
      4 C          14.9600   -2.7100   -0.9300 C.3     1  LIG1        0.1990
      5 N          13.0500   -2.4800    0.4700 N.am    1  LIG1       -0.1645
      6 C          14.2600   -2.4900    1.2600 C.2     1  LIG1        0.3370
      7 N          14.2500   -2.3600    2.6000 N.pl3   1  LIG1       -0.2538
      8 C          11.6600   -2.3300    0.9300 C.3     1  LIG1        0.0572
      9 C          15.6200    4.0100   -0.2200 C.ar    1  LIG1        0.0416
     10 CL         16.1300    4.6300    1.3400 Cl      1  LIG1       -0.0835
     11 C          15.6100   -1.5800   -1.7500 C.ar    1  LIG1        0.0029
     12 C          16.4600   -1.8600   -2.8100 C.ar    1  LIG1       -0.0545
     13 C          16.9900   -0.8400   -3.5800 C.ar    1  LIG1       -0.0608
     14 C          16.6900    0.4800   -3.2800 C.ar    1  LIG1       -0.0540
     15 C          15.8600    0.7900   -2.2000 C.ar    1  LIG1       -0.0175
     16 C          15.3100   -0.2500   -1.4400 C.ar    1  LIG1       -0.0468
     17 C          14.8700    4.7400   -1.0500 C.ar    1  LIG1       -0.0434
     18 C          15.9500    2.7700   -0.6200 C.ar    1  LIG1       -0.0357
     19 C          15.5700    2.2200   -1.8400 C.ar    1  LIG1       -0.0165
     20 C          14.8200    3.0300   -2.6900 C.ar    1  LIG1       -0.0539
     21 C          14.4600    4.3100   -2.2900 C.ar    1  LIG1       -0.0598
     22 H          13.8700    4.9500   -2.9400 H       1  LIG1        0.0618
     23 H          14.5700    5.7400   -0.7300 H       1  LIG1        0.0632
     24 H          14.5100    2.6600   -3.6700 H       1  LIG1        0.0624
     25 H          16.5700    2.1700    0.0400 H       1  LIG1        0.0638
     26 H          14.6500   -0.0200   -0.6100 H       1  LIG1        0.0628
     27 H          17.1000    1.2800   -3.8900 H       1  LIG1        0.0624
     28 H          16.7200   -2.9000   -3.0300 H       1  LIG1        0.0622
     29 H          17.6400   -1.0700   -4.4200 H       1  LIG1        0.0618
     30 H          13.3700   -2.2900    3.0900 H       1  LIG1        0.2411
     31 H          15.1200   -2.3300    3.1100 H       1  LIG1        0.2411
     32 H          11.3300   -1.3100    0.7400 H       1  LIG1        0.0602
     33 H          11.6100   -2.5500    1.9900 H       1  LIG1        0.0602
     34 H          11.0300   -3.0300    0.3800 H       1  LIG1        0.0602
     35 C          15.3300   -3.8900   -1.5000 C.3     1  LIG1       -0.0138
     36 H          14.9900   -3.9100   -2.5300 H       1  LIG1        0.0275
     37 H          14.8800   -4.7200   -0.9500 H       1  LIG1        0.0275
     38 H          16.4100   -3.9800   -1.4700 H       1  LIG1        0.0275
     39 H          16.2644   -2.4672    0.9738 H       1  LIG1        0.2589
@<TRIPOS>BOND
     1     1     3    2
     2     1     4    1
     3     1     5   am
     4     2     4    1
     5     2     6    2
     6     2    39    1
     7     4    11    1
     8     4    35    1
     9     5     8    1
    10     5     6    1
    11     6     7    1
    12     7    30    1
    13     7    31    1
    14     8    34    1
    15     8    32    1
    16     8    33    1
    17     9    17   ar
    18     9    18   ar
    19     9    10    1
    20    11    12   ar
    21    11    16   ar
    22    12    13   ar
    23    12    28    1
    24    13    29    1
    25    13    14   ar
    26    14    27    1
    27    14    15   ar
    28    15    19    1
    29    15    16   ar
    30    16    26    1
    31    17    21   ar
    32    17    23    1
    33    18    19   ar
    34    18    25    1
    35    19    20   ar
    36    20    24    1
    37    20    21   ar
    38    21    22    1
    39    35    36    1
    40    35    38    1
    41    35    37    1
