@<TRIPOS>MOLECULE
lig_CAT-4k
 45 48 0 0 0
SMALL
GASTEIGER

@<TRIPOS>ATOM
      1 C          13.4100   -2.5300   -0.8600 C.2     1  LIG1        0.3267
      2 N          15.3600   -2.5400    0.5300 N.2     1  LIG1       -0.2585
      3 O          12.6400   -2.4100   -1.8000 O.2     1  LIG1       -0.2522
      4 C          14.9600   -2.7100   -0.9300 C.3     1  LIG1        0.2275
      5 N          13.0500   -2.4800    0.4700 N.am    1  LIG1       -0.1641
      6 C          14.2600   -2.4900    1.2600 C.2     1  LIG1        0.3372
      7 N          14.2500   -2.3600    2.6000 N.pl3   1  LIG1       -0.2538
      8 C          11.6600   -2.3300    0.9300 C.3     1  LIG1        0.0572
      9 C          15.6200    4.0100   -0.2200 C.ar    1  LIG1        0.0281
     10 H          15.9300    4.3900    0.7400 H       1  LIG1        0.0830
     11 C          15.2600   -4.1300   -1.4300 C.ar    1  LIG1        0.0072
     12 C          16.4000   -4.8000   -1.0100 C.ar    1  LIG1       -0.0541
     13 C          16.6600   -6.1100   -1.4200 C.ar    1  LIG1       -0.0614
     14 C          15.7800   -6.7500   -2.2600 C.ar    1  LIG1       -0.0617
     15 C          14.6500   -6.0900   -2.7100 C.ar    1  LIG1       -0.0614
     16 C          14.3900   -4.7900   -2.3000 C.ar    1  LIG1       -0.0541
     17 C          15.6100   -1.5800   -1.7500 C.ar    1  LIG1        0.0078
     18 C          16.4600   -1.8600   -2.8100 C.ar    1  LIG1       -0.0541
     19 C          16.9900   -0.8400   -3.5800 C.ar    1  LIG1       -0.0608
     20 C          16.6900    0.4800   -3.2800 C.ar    1  LIG1       -0.0540
     21 C          15.8600    0.7900   -2.2000 C.ar    1  LIG1       -0.0174
     22 C          15.3100   -0.2500   -1.4400 C.ar    1  LIG1       -0.0464
     23 N          14.8700    4.7400   -1.0500 N.ar    1  LIG1       -0.2632
     24 C          15.9500    2.7700   -0.6200 C.ar    1  LIG1       -0.0359
     25 C          15.5700    2.2200   -1.8400 C.ar    1  LIG1       -0.0150
     26 C          14.8200    3.0300   -2.6900 C.ar    1  LIG1       -0.0359
     27 H          14.5200    2.6600   -3.6600 H       1  LIG1        0.0639
     28 C          14.4600    4.3100   -2.2900 C.ar    1  LIG1        0.0281
     29 H          13.8700    4.9500   -2.9400 H       1  LIG1        0.0830
     30 H          16.5700    2.1700    0.0400 H       1  LIG1        0.0639
     31 H          14.6500   -0.0200   -0.6100 H       1  LIG1        0.0628
     32 H          17.1000    1.2800   -3.8900 H       1  LIG1        0.0624
     33 H          16.7200   -2.9000   -3.0300 H       1  LIG1        0.0622
     34 H          17.6400   -1.0700   -4.4200 H       1  LIG1        0.0618
     35 H          13.5100   -4.2700   -2.6700 H       1  LIG1        0.0622
     36 H          17.5500   -6.6200   -1.0800 H       1  LIG1        0.0618
     37 H          13.9600   -6.5900   -3.3900 H       1  LIG1        0.0618
     38 H          15.9700   -7.7800   -2.5800 H       1  LIG1        0.0618
     39 H          17.1100   -4.3000   -0.3500 H       1  LIG1        0.0622
     40 H          13.3700   -2.2900    3.0900 H       1  LIG1        0.2411
     41 H          15.1200   -2.3300    3.1100 H       1  LIG1        0.2411
     42 H          11.3300   -1.3100    0.7400 H       1  LIG1        0.0602
     43 H          11.6100   -2.5500    1.9900 H       1  LIG1        0.0602
     44 H          11.0300   -3.0300    0.3800 H       1  LIG1        0.0602
     45 H          16.2644   -2.4672    0.9738 H       1  LIG1        0.2592
@<TRIPOS>BOND
     1     1     3    2
     2     1     4    1
     3     1     5   am
     4     2     4    1
     5     2     6    2
     6     2    45    1
     7     4    17    1
     8     4    11    1
     9     5     8    1
    10     5     6    1
    11     6     7    1
    12     7    40    1
    13     7    41    1
    14     8    44    1
    15     8    42    1
    16     8    43    1
    17     9    23   ar
    18     9    24   ar
    19     9    10    1
    20    11    16   ar
    21    11    12   ar
    22    12    13   ar
    23    12    39    1
    24    13    14   ar
    25    13    36    1
    26    14    15   ar
    27    14    38    1
    28    15    37    1
    29    15    16   ar
    30    16    35    1
    31    17    18   ar
    32    17    22   ar
    33    18    19   ar
    34    18    33    1
    35    19    34    1
    36    19    20   ar
    37    20    32    1
    38    20    21   ar
    39    21    25    1
    40    21    22   ar
    41    22    31    1
    42    23    28   ar
    43    24    25   ar
    44    24    30    1
    45    25    26   ar
    46    26    27    1
    47    26    28   ar
    48    28    29    1
