@<TRIPOS>MOLECULE
lig_CAT-4c
 50 53 0 0 0
SMALL
GASTEIGER

@<TRIPOS>ATOM
      1 C          13.4100   -2.5000   -0.8500 C.2     1  LIG1        0.3267
      2 N          15.3800   -2.5400    0.5200 N.2     1  LIG1       -0.2585
      3 O          12.6400   -2.3700   -1.7800 O.2     1  LIG1       -0.2522
      4 C          14.9600   -2.7100   -0.9300 C.3     1  LIG1        0.2275
      5 N          13.0700   -2.4500    0.4800 N.am    1  LIG1       -0.1641
      6 C          14.2800   -2.4800    1.2600 C.2     1  LIG1        0.3372
      7 N          14.2800   -2.3500    2.6000 N.pl3   1  LIG1       -0.2538
      8 C          11.6900   -2.2800    0.9500 C.3     1  LIG1        0.0572
      9 C          15.7300    4.0000   -0.2200 C.ar    1  LIG1       -0.0194
     10 H          16.0600    4.3700    0.7400 H       1  LIG1        0.0654
     11 C          15.2400   -4.1300   -1.4300 C.ar    1  LIG1        0.0072
     12 C          16.3700   -4.8200   -1.0300 C.ar    1  LIG1       -0.0541
     13 C          16.6000   -6.1300   -1.4400 C.ar    1  LIG1       -0.0614
     14 C          15.7100   -6.7600   -2.2800 C.ar    1  LIG1       -0.0617
     15 C          14.5900   -6.0800   -2.7200 C.ar    1  LIG1       -0.0614
     16 C          14.3500   -4.7800   -2.3100 C.ar    1  LIG1       -0.0541
     17 C          15.6200   -1.5900   -1.7500 C.ar    1  LIG1        0.0078
     18 C          16.4600   -1.8800   -2.8200 C.ar    1  LIG1       -0.0541
     19 C          17.0000   -0.8700   -3.5900 C.ar    1  LIG1       -0.0608
     20 C          16.7200    0.4600   -3.2900 C.ar    1  LIG1       -0.0540
     21 C          15.9100    0.7800   -2.2000 C.ar    1  LIG1       -0.0175
     22 C          15.3500   -0.2500   -1.4500 C.ar    1  LIG1       -0.0464
     23 C          14.9900    4.7500   -1.0400 C.ar    1  LIG1        0.1201
     24 C          16.0400    2.7600   -0.6300 C.ar    1  LIG1       -0.0506
     25 C          15.6400    2.2100   -1.8400 C.ar    1  LIG1       -0.0176
     26 C          14.9000    3.0400   -2.6800 C.ar    1  LIG1       -0.0506
     27 C          14.5600    4.3200   -2.2800 C.ar    1  LIG1       -0.0194
     28 H          13.9800    4.9700   -2.9200 H       1  LIG1        0.0654
     29 O          14.6200    6.0600   -0.6100 O.3     1  LIG1       -0.4951
     30 C          15.0900    6.4300    0.6800 C.3     1  LIG1        0.0788
     31 H          14.7600    7.4400    0.9100 H       1  LIG1        0.0660
     32 H          16.1800    6.3900    0.6900 H       1  LIG1        0.0660
     33 H          14.7000    5.7400    1.4300 H       1  LIG1        0.0660
     34 H          14.5800    2.6700   -3.6600 H       1  LIG1        0.0625
     35 H          16.6500    2.1400    0.0300 H       1  LIG1        0.0625
     36 H          14.7000   -0.0100   -0.6100 H       1  LIG1        0.0628
     37 H          17.1400    1.2500   -3.9100 H       1  LIG1        0.0624
     38 H          16.7000   -2.9200   -3.0500 H       1  LIG1        0.0622
     39 H          17.6300   -1.1100   -4.4400 H       1  LIG1        0.0618
     40 H          13.4700   -4.2500   -2.6700 H       1  LIG1        0.0622
     41 H          17.4900   -6.6600   -1.1100 H       1  LIG1        0.0618
     42 H          13.8800   -6.5700   -3.3900 H       1  LIG1        0.0618
     43 H          15.8800   -7.7900   -2.6000 H       1  LIG1        0.0618
     44 H          17.0900   -4.3300   -0.3700 H       1  LIG1        0.0622
     45 H          13.4100   -2.2700    3.1000 H       1  LIG1        0.2411
     46 H          15.1500   -2.3400    3.1000 H       1  LIG1        0.2411
     47 H          11.3600   -1.2600    0.7700 H       1  LIG1        0.0602
     48 H          11.6300   -2.5000    2.0100 H       1  LIG1        0.0602
     49 H          11.0300   -2.9600    0.4100 H       1  LIG1        0.0602
     50 H          16.2876   -2.4728    0.9580 H       1  LIG1        0.2592
@<TRIPOS>BOND
     1     1     3    2
     2     1     4    1
     3     1     5   am
     4     2     4    1
     5     2     6    2
     6     2    50    1
     7     4    17    1
     8     4    11    1
     9     5     8    1
    10     5     6    1
    11     6     7    1
    12     7    45    1
    13     7    46    1
    14     8    49    1
    15     8    47    1
    16     8    48    1
    17     9    23   ar
    18     9    24   ar
    19     9    10    1
    20    11    16   ar
    21    11    12   ar
    22    12    13   ar
    23    12    44    1
    24    13    14   ar
    25    13    41    1
    26    14    15   ar
    27    14    43    1
    28    15    42    1
    29    15    16   ar
    30    16    40    1
    31    17    18   ar
    32    17    22   ar
    33    18    19   ar
    34    18    38    1
    35    19    39    1
    36    19    20   ar
    37    20    37    1
    38    20    21   ar
    39    21    25    1
    40    21    22   ar
    41    22    36    1
    42    23    27   ar
    43    23    29    1
    44    24    25   ar
    45    24    35    1
    46    25    26   ar
    47    26    34    1
    48    26    27   ar
    49    27    28    1
    50    29    30    1
    51    30    32    1
    52    30    31    1
    53    30    33    1
