lig_CAT-13b
     RDKit          3D

 42 44  0  0  0  0  0  0  0  0999 V2000
   13.4100   -2.5300   -0.8600 C   0  0  0  0  0  0  0  0  0  0  0  0
   15.3600   -2.5400    0.5300 N   0  0  0  0  0  0  0  0  0  0  0  0
   12.6400   -2.4100   -1.8000 O   0  0  0  0  0  0  0  0  0  0  0  0
   14.9600   -2.7100   -0.9300 C   0  0  1  0  0  0  0  0  0  0  0  0
   15.3500   -3.9500   -1.5200 C   0  0  0  0  0  0  0  0  0  0  0  0
   15.7200   -4.6200   -0.7600 H   0  0  0  0  0  0  0  0  0  0  0  0
   16.1300   -3.7700   -2.2600 H   0  0  0  0  0  0  0  0  0  0  0  0
   14.2100   -4.5400   -2.1600 C   0  0  0  0  0  0  0  0  0  0  0  0
   13.4300   -4.7200   -1.4300 H   0  0  0  0  0  0  0  0  0  0  0  0
   14.5100   -5.4900   -2.6200 H   0  0  0  0  0  0  0  0  0  0  0  0
   13.8400   -3.8700   -2.9300 H   0  0  0  0  0  0  0  0  0  0  0  0
   13.0500   -2.4800    0.4700 N   0  0  0  0  0  0  0  0  0  0  0  0
   14.2600   -2.4900    1.2600 C   0  0  0  0  0  0  0  0  0  0  0  0
   14.2500   -2.3600    2.6000 N   0  0  0  0  0  0  0  0  0  0  0  0
   11.6600   -2.3300    0.9300 C   0  0  0  0  0  0  0  0  0  0  0  0
   15.6200    4.0100   -0.2200 C   0  0  0  0  0  0  0  0  0  0  0  0
   16.1300    4.6300    1.3400 Cl  0  0  0  0  0  0  0  0  0  0  0  0
   15.6100   -1.5800   -1.7500 C   0  0  0  0  0  0  0  0  0  0  0  0
   16.4600   -1.8600   -2.8100 C   0  0  0  0  0  0  0  0  0  0  0  0
   16.9900   -0.8400   -3.5800 C   0  0  0  0  0  0  0  0  0  0  0  0
   16.6900    0.4800   -3.2800 C   0  0  0  0  0  0  0  0  0  0  0  0
   15.8600    0.7900   -2.2000 C   0  0  0  0  0  0  0  0  0  0  0  0
   15.3100   -0.2500   -1.4400 C   0  0  0  0  0  0  0  0  0  0  0  0
   14.8700    4.7400   -1.0500 C   0  0  0  0  0  0  0  0  0  0  0  0
   15.9500    2.7700   -0.6200 C   0  0  0  0  0  0  0  0  0  0  0  0
   15.5700    2.2200   -1.8400 C   0  0  0  0  0  0  0  0  0  0  0  0
   14.8200    3.0300   -2.6900 C   0  0  0  0  0  0  0  0  0  0  0  0
   14.4600    4.3100   -2.2900 C   0  0  0  0  0  0  0  0  0  0  0  0
   13.8700    4.9500   -2.9400 H   0  0  0  0  0  0  0  0  0  0  0  0
   14.5700    5.7400   -0.7300 H   0  0  0  0  0  0  0  0  0  0  0  0
   14.5100    2.6600   -3.6700 H   0  0  0  0  0  0  0  0  0  0  0  0
   16.5700    2.1700    0.0400 H   0  0  0  0  0  0  0  0  0  0  0  0
   14.6500   -0.0200   -0.6100 H   0  0  0  0  0  0  0  0  0  0  0  0
   17.1000    1.2800   -3.8900 H   0  0  0  0  0  0  0  0  0  0  0  0
   16.7200   -2.9000   -3.0300 H   0  0  0  0  0  0  0  0  0  0  0  0
   17.6400   -1.0700   -4.4200 H   0  0  0  0  0  0  0  0  0  0  0  0
   13.3700   -2.2900    3.0900 H   0  0  0  0  0  0  0  0  0  0  0  0
   15.1200   -2.3300    3.1100 H   0  0  0  0  0  0  0  0  0  0  0  0
   11.3300   -1.3100    0.7400 H   0  0  0  0  0  0  0  0  0  0  0  0
   11.6100   -2.5500    1.9900 H   0  0  0  0  0  0  0  0  0  0  0  0
   11.0300   -3.0300    0.3800 H   0  0  0  0  0  0  0  0  0  0  0  0
   16.2644   -2.4672    0.9738 H   0  0  0  0  0  0  0  0  0  0  0  0
  1  3  2  0
  1  4  1  0
  1 12  1  0
  2  4  1  0
  2 13  2  0
  2 42  1  0
  4 18  1  0
  4  5  1  6
  5  7  1  0
  5  8  1  0
  5  6  1  0
  8 11  1  0
  8 10  1  0
  8  9  1  0
 12 15  1  0
 12 13  1  0
 13 14  1  0
 14 37  1  0
 14 38  1  0
 15 41  1  0
 15 39  1  0
 15 40  1  0
 16 24  2  0
 16 25  1  0
 16 17  1  0
 18 19  2  0
 18 23  1  0
 19 20  1  0
 19 35  1  0
 20 36  1  0
 20 21  2  0
 21 34  1  0
 21 22  1  0
 22 26  1  0
 22 23  2  0
 23 33  1  0
 24 28  1  0
 24 30  1  0
 25 26  2  0
 25 32  1  0
 26 27  1  0
 27 31  1  0
 27 28  2  0
 28 29  1  0
M  CHG  1   2   1
M  END
>  <s_m_entry_id>  (1) 
14

>  <s_m_entry_name>  (1) 
lig_CAT-13b.1

>  <s_m_Source_Path>  (1) 
C:\Users\dhahn3\Downloads\bace

>  <s_m_Source_File>  (1) 
lig_CAT-13b.sdf

>  <i_m_Source_File_Index>  (1) 
1

$$$$
