lig_CAT-13j
     RDKit          3D

 45 48  0  0  0  0  0  0  0  0999 V2000
   13.4100   -2.5000   -0.8500 C   0  0  0  0  0  0  0  0  0  0  0  0
   15.3800   -2.5400    0.5200 N   0  0  0  0  0  0  0  0  0  0  0  0
   12.6400   -2.3700   -1.7800 O   0  0  0  0  0  0  0  0  0  0  0  0
   14.9600   -2.7100   -0.9300 C   0  0  1  0  0  0  0  0  0  0  0  0
   13.0700   -2.4500    0.4800 N   0  0  0  0  0  0  0  0  0  0  0  0
   14.2800   -2.4800    1.2600 C   0  0  0  0  0  0  0  0  0  0  0  0
   14.2800   -2.3500    2.6000 N   0  0  0  0  0  0  0  0  0  0  0  0
   11.6900   -2.2800    0.9500 C   0  0  0  0  0  0  0  0  0  0  0  0
   15.8400    4.0300   -0.2700 C   0  0  0  0  0  0  0  0  0  0  0  0
   16.5200    4.6900    1.2100 Cl  0  0  0  0  0  0  0  0  0  0  0  0
   15.2400   -4.1300   -1.4300 C   0  0  0  0  0  0  0  0  0  0  0  0
   16.3700   -4.8200   -1.0300 C   0  0  0  0  0  0  0  0  0  0  0  0
   16.6000   -6.1300   -1.4400 C   0  0  0  0  0  0  0  0  0  0  0  0
   15.7100   -6.7600   -2.2800 C   0  0  0  0  0  0  0  0  0  0  0  0
   14.5900   -6.0800   -2.7200 C   0  0  0  0  0  0  0  0  0  0  0  0
   14.3500   -4.7800   -2.3100 N   0  0  0  0  0  0  0  0  0  0  0  0
   15.6200   -1.5900   -1.7500 C   0  0  0  0  0  0  0  0  0  0  0  0
   16.4600   -1.8800   -2.8200 C   0  0  0  0  0  0  0  0  0  0  0  0
   17.0000   -0.8700   -3.5900 C   0  0  0  0  0  0  0  0  0  0  0  0
   16.7200    0.4600   -3.2900 C   0  0  0  0  0  0  0  0  0  0  0  0
   15.9100    0.7800   -2.2000 C   0  0  0  0  0  0  0  0  0  0  0  0
   15.3500   -0.2500   -1.4500 C   0  0  0  0  0  0  0  0  0  0  0  0
   15.0000    4.7500   -1.0200 C   0  0  0  0  0  0  0  0  0  0  0  0
   14.7300    5.7400   -0.6900 H   0  0  0  0  0  0  0  0  0  0  0  0
   16.1500    2.7900   -0.6800 C   0  0  0  0  0  0  0  0  0  0  0  0
   15.6400    2.2100   -1.8400 C   0  0  0  0  0  0  0  0  0  0  0  0
   14.8000    3.0000   -2.6200 C   0  0  0  0  0  0  0  0  0  0  0  0
   14.3900    2.6100   -3.5400 H   0  0  0  0  0  0  0  0  0  0  0  0
   14.4700    4.2800   -2.2100 C   0  0  0  0  0  0  0  0  0  0  0  0
   13.8100    4.9000   -2.8000 H   0  0  0  0  0  0  0  0  0  0  0  0
   16.8300    2.2000   -0.0800 H   0  0  0  0  0  0  0  0  0  0  0  0
   14.7000   -0.0100   -0.6100 H   0  0  0  0  0  0  0  0  0  0  0  0
   17.1400    1.2500   -3.9100 H   0  0  0  0  0  0  0  0  0  0  0  0
   16.7000   -2.9200   -3.0500 H   0  0  0  0  0  0  0  0  0  0  0  0
   17.6300   -1.1100   -4.4400 H   0  0  0  0  0  0  0  0  0  0  0  0
   17.4900   -6.6600   -1.1100 H   0  0  0  0  0  0  0  0  0  0  0  0
   13.8800   -6.5700   -3.3900 H   0  0  0  0  0  0  0  0  0  0  0  0
   15.8800   -7.7900   -2.6000 H   0  0  0  0  0  0  0  0  0  0  0  0
   17.0900   -4.3300   -0.3700 H   0  0  0  0  0  0  0  0  0  0  0  0
   13.4100   -2.2700    3.1000 H   0  0  0  0  0  0  0  0  0  0  0  0
   15.1500   -2.3400    3.1000 H   0  0  0  0  0  0  0  0  0  0  0  0
   11.3600   -1.2600    0.7700 H   0  0  0  0  0  0  0  0  0  0  0  0
   11.6300   -2.5000    2.0100 H   0  0  0  0  0  0  0  0  0  0  0  0
   11.0300   -2.9600    0.4100 H   0  0  0  0  0  0  0  0  0  0  0  0
   16.2876   -2.4728    0.9580 H   0  0  0  0  0  0  0  0  0  0  0  0
  1  3  2  0
  1  4  1  0
  1  5  1  0
  2  4  1  0
  2  6  2  0
  2 45  1  0
  4 17  1  6
  4 11  1  0
  5  8  1  0
  5  6  1  0
  6  7  1  0
  7 40  1  0
  7 41  1  0
  8 44  1  0
  8 42  1  0
  8 43  1  0
  9 23  2  0
  9 25  1  0
  9 10  1  0
 11 16  1  0
 11 12  2  0
 12 13  1  0
 12 39  1  0
 13 14  2  0
 13 36  1  0
 14 15  1  0
 14 38  1  0
 15 37  1  0
 15 16  2  0
 17 18  2  0
 17 22  1  0
 18 19  1  0
 18 34  1  0
 19 35  1  0
 19 20  2  0
 20 33  1  0
 20 21  1  0
 21 26  1  0
 21 22  2  0
 22 32  1  0
 23 29  1  0
 23 24  1  0
 25 26  2  0
 25 31  1  0
 26 27  1  0
 27 28  1  0
 27 29  2  0
 29 30  1  0
M  CHG  1   2   1
M  END
>  <s_m_entry_id>  (1) 
22

>  <s_m_entry_name>  (1) 
lig_CAT-13j.1

>  <s_m_Source_Path>  (1) 
C:\Users\dhahn3\Downloads\bace

>  <s_m_Source_File>  (1) 
lig_CAT-13j.sdf

>  <i_m_Source_File_Index>  (1) 
1

$$$$
