lig_CAT-13g
     RDKit          3D

 52 55  0  0  0  0  0  0  0  0999 V2000
   13.4100   -2.5300   -0.8600 C   0  0  0  0  0  0  0  0  0  0  0  0
   15.3600   -2.5400    0.5300 N   0  0  0  0  0  0  0  0  0  0  0  0
   12.6400   -2.4100   -1.8000 O   0  0  0  0  0  0  0  0  0  0  0  0
   14.9600   -2.7100   -0.9300 C   0  0  2  0  0  0  0  0  0  0  0  0
   13.0500   -2.4800    0.4700 N   0  0  0  0  0  0  0  0  0  0  0  0
   14.2600   -2.4900    1.2600 C   0  0  0  0  0  0  0  0  0  0  0  0
   14.2500   -2.3600    2.6000 N   0  0  0  0  0  0  0  0  0  0  0  0
   11.6600   -2.3300    0.9300 C   0  0  0  0  0  0  0  0  0  0  0  0
   15.7300    4.0400   -0.2700 C   0  0  0  0  0  0  0  0  0  0  0  0
   16.3800    4.7100    1.2200 Cl  0  0  0  0  0  0  0  0  0  0  0  0
   15.6100   -1.5800   -1.7500 C   0  0  0  0  0  0  0  0  0  0  0  0
   16.4600   -1.8600   -2.8100 C   0  0  0  0  0  0  0  0  0  0  0  0
   16.9900   -0.8400   -3.5800 C   0  0  0  0  0  0  0  0  0  0  0  0
   16.6900    0.4800   -3.2800 C   0  0  0  0  0  0  0  0  0  0  0  0
   15.8600    0.7900   -2.2000 C   0  0  0  0  0  0  0  0  0  0  0  0
   15.3100   -0.2500   -1.4400 C   0  0  0  0  0  0  0  0  0  0  0  0
   14.8900    4.7400   -1.0300 C   0  0  0  0  0  0  0  0  0  0  0  0
   16.0600    2.8100   -0.6800 C   0  0  0  0  0  0  0  0  0  0  0  0
   15.5700    2.2200   -1.8400 C   0  0  0  0  0  0  0  0  0  0  0  0
   14.7200    2.9900   -2.6200 C   0  0  0  0  0  0  0  0  0  0  0  0
   14.3700    4.2700   -2.2200 C   0  0  0  0  0  0  0  0  0  0  0  0
   13.7000    4.8800   -2.8200 H   0  0  0  0  0  0  0  0  0  0  0  0
   14.5900    5.7400   -0.7000 H   0  0  0  0  0  0  0  0  0  0  0  0
   14.3300    2.6000   -3.5600 H   0  0  0  0  0  0  0  0  0  0  0  0
   16.7500    2.2300   -0.0700 H   0  0  0  0  0  0  0  0  0  0  0  0
   14.6500   -0.0200   -0.6100 H   0  0  0  0  0  0  0  0  0  0  0  0
   17.1000    1.2800   -3.8900 H   0  0  0  0  0  0  0  0  0  0  0  0
   16.7200   -2.9000   -3.0300 H   0  0  0  0  0  0  0  0  0  0  0  0
   17.6400   -1.0700   -4.4200 H   0  0  0  0  0  0  0  0  0  0  0  0
   13.3700   -2.2900    3.0900 H   0  0  0  0  0  0  0  0  0  0  0  0
   15.1200   -2.3300    3.1100 H   0  0  0  0  0  0  0  0  0  0  0  0
   11.3300   -1.3100    0.7400 H   0  0  0  0  0  0  0  0  0  0  0  0
   11.6100   -2.5500    1.9900 H   0  0  0  0  0  0  0  0  0  0  0  0
   11.0300   -3.0300    0.3800 H   0  0  0  0  0  0  0  0  0  0  0  0
   16.2000   -6.6900   -1.2200 C   0  0  0  0  0  0  0  0  0  0  0  0
   16.5000   -7.6400   -1.6800 H   0  0  0  0  0  0  0  0  0  0  0  0
   16.2300   -6.8400   -0.1300 H   0  0  0  0  0  0  0  0  0  0  0  0
   14.7700   -6.3500   -1.6300 C   0  0  0  0  0  0  0  0  0  0  0  0
   14.0800   -7.1200   -1.2700 H   0  0  0  0  0  0  0  0  0  0  0  0
   14.7000   -6.3500   -2.7300 H   0  0  0  0  0  0  0  0  0  0  0  0
   14.3400   -4.9800   -1.1000 C   0  0  0  0  0  0  0  0  0  0  0  0
   14.2700   -5.0300   -0.0000 H   0  0  0  0  0  0  0  0  0  0  0  0
   13.3400   -4.7400   -1.4700 H   0  0  0  0  0  0  0  0  0  0  0  0
   15.3300   -3.8900   -1.5000 C   0  0  0  0  0  0  0  0  0  0  0  0
   15.2900   -3.7400   -2.5800 H   0  0  0  0  0  0  0  0  0  0  0  0
   16.7500   -4.2300   -1.0800 C   0  0  0  0  0  0  0  0  0  0  0  0
   16.8200   -4.2400    0.0100 H   0  0  0  0  0  0  0  0  0  0  0  0
   17.4400   -3.4600   -1.4500 H   0  0  0  0  0  0  0  0  0  0  0  0
   17.1800   -5.6000   -1.6200 C   0  0  0  0  0  0  0  0  0  0  0  0
   18.1800   -5.8500   -1.2400 H   0  0  0  0  0  0  0  0  0  0  0  0
   17.2500   -5.5500   -2.7100 H   0  0  0  0  0  0  0  0  0  0  0  0
   16.2644   -2.4672    0.9738 H   0  0  0  0  0  0  0  0  0  0  0  0
  1  3  2  0
  1  4  1  0
  1  5  1  0
  2  4  1  0
  2  6  2  0
  2 52  1  0
  4 11  1  6
  4 44  1  0
  5  8  1  0
  5  6  1  0
  6  7  1  0
  7 30  1  0
  7 31  1  0
  8 34  1  0
  8 32  1  0
  8 33  1  0
  9 17  2  0
  9 18  1  0
  9 10  1  0
 11 12  2  0
 11 16  1  0
 12 13  1  0
 12 28  1  0
 13 29  1  0
 13 14  2  0
 14 27  1  0
 14 15  1  0
 15 19  1  0
 15 16  2  0
 16 26  1  0
 17 21  1  0
 17 23  1  0
 18 19  2  0
 18 25  1  0
 19 20  1  0
 20 24  1  0
 20 21  2  0
 21 22  1  0
 35 36  1  0
 35 38  1  0
 35 49  1  0
 35 37  1  0
 38 40  1  0
 38 39  1  0
 38 41  1  0
 41 44  1  0
 41 43  1  0
 41 42  1  0
 44 45  1  0
 44 46  1  0
 46 49  1  0
 46 48  1  0
 46 47  1  0
 49 51  1  0
 49 50  1  0
M  CHG  1   2   1
M  END
>  <s_m_entry_id>  (1) 
19

>  <s_m_entry_name>  (1) 
lig_CAT-13g.1

>  <s_m_Source_Path>  (1) 
C:\Users\dhahn3\Downloads\bace

>  <s_m_Source_File>  (1) 
lig_CAT-13g.sdf

>  <i_m_Source_File_Index>  (1) 
1

$$$$
