@<TRIPOS>MOLECULE
lig_CAT-13o
 42 45 0 0 0
SMALL
GASTEIGER

@<TRIPOS>ATOM
      1 C          13.4000   -2.5200   -0.8400 C.2     1  LIG1        0.3288
      2 N          15.3600   -2.5700    0.5400 N.2     1  LIG1       -0.2568
      3 O          12.6300   -2.3900   -1.7700 O.2     1  LIG1       -0.2521
      4 C          14.9400   -2.7400   -0.9200 C.3     1  LIG1        0.2504
      5 N          13.0500   -2.4700    0.4900 N.am    1  LIG1       -0.1641
      6 C          14.2600   -2.5000    1.2800 C.2     1  LIG1        0.3373
      7 N          14.2700   -2.3600    2.6100 N.pl3   1  LIG1       -0.2538
      8 C          11.6700   -2.2900    0.9600 C.3     1  LIG1        0.0572
      9 C          15.9600    4.0400   -0.3400 C.ar    1  LIG1        0.0416
     10 CL         16.7700    4.7400    1.0500 Cl      1  LIG1       -0.0835
     11 C          15.6100   -1.6200   -1.7500 C.ar    1  LIG1        0.0098
     12 C          16.4500   -1.9300   -2.8100 C.ar    1  LIG1       -0.0540
     13 C          16.9900   -0.9200   -3.5900 C.ar    1  LIG1       -0.0608
     14 C          16.7200    0.4100   -3.2900 C.ar    1  LIG1       -0.0540
     15 C          15.9100    0.7400   -2.2000 C.ar    1  LIG1       -0.0174
     16 C          15.3500   -0.2900   -1.4400 C.ar    1  LIG1       -0.0463
     17 C          15.0400    4.7100   -1.0300 C.ar    1  LIG1       -0.0434
     18 C          16.2500    2.7900   -0.7600 C.ar    1  LIG1       -0.0357
     19 C          15.6500    2.1700   -1.8500 C.ar    1  LIG1       -0.0165
     20 C          14.7100    2.9300   -2.5500 C.ar    1  LIG1       -0.0539
     21 C          14.4000    4.2100   -2.1400 C.ar    1  LIG1       -0.0598
     22 H          13.6700    4.8100   -2.6800 H       1  LIG1        0.0618
     23 H          14.7800    5.7200   -0.6900 H       1  LIG1        0.0632
     24 H          14.2300    2.5100   -3.4300 H       1  LIG1        0.0624
     25 H          17.0100    2.2300   -0.2100 H       1  LIG1        0.0638
     26 H          14.6900   -0.0400   -0.6000 H       1  LIG1        0.0628
     27 H          17.1400    1.2000   -3.9100 H       1  LIG1        0.0624
     28 H          16.6900   -2.9700   -3.0300 H       1  LIG1        0.0622
     29 H          17.6300   -1.1700   -4.4300 H       1  LIG1        0.0618
     30 H          13.3900   -2.2700    3.1100 H       1  LIG1        0.2411
     31 H          15.1400   -2.3500    3.1200 H       1  LIG1        0.2411
     32 H          11.3600   -1.2600    0.7800 H       1  LIG1        0.0602
     33 H          11.6200   -2.5000    2.0300 H       1  LIG1        0.0602
     34 H          11.0200   -2.9700    0.4200 H       1  LIG1        0.0602
     35 C          15.2400   -5.8200   -2.7900 C.ar    1  LIG1        0.0352
     36 H          14.9300   -6.5700   -3.5000 H       1  LIG1        0.0835
     37 N          14.5300   -4.6300   -2.4600 N.ar    1  LIG1       -0.2476
     38 C          15.2800   -3.9300   -1.4900 C.ar    1  LIG1        0.1333
     39 S          16.4500   -4.6800   -1.2000 S.2     1  LIG1       -0.0760
     40 C          16.4300   -5.8500   -2.0100 C.ar    1  LIG1       -0.0044
     41 H          17.1800   -6.6300   -2.0300 H       1  LIG1        0.0709
     42 H          16.2680   -2.5094    0.9781 H       1  LIG1        0.2593
@<TRIPOS>BOND
     1     1     3    2
     2     1     4    1
     3     1     5   am
     4     2     4    1
     5     2     6    2
     6     2    42    1
     7     4    11    1
     8     4    38    1
     9     5     8    1
    10     5     6    1
    11     6     7    1
    12     7    30    1
    13     7    31    1
    14     8    34    1
    15     8    32    1
    16     8    33    1
    17     9    17   ar
    18     9    18   ar
    19     9    10    1
    20    11    12   ar
    21    11    16   ar
    22    12    13   ar
    23    12    28    1
    24    13    29    1
    25    13    14   ar
    26    14    27    1
    27    14    15   ar
    28    15    19    1
    29    15    16   ar
    30    16    26    1
    31    17    21   ar
    32    17    23    1
    33    18    19   ar
    34    18    25    1
    35    19    20   ar
    36    20    24    1
    37    20    21   ar
    38    21    22    1
    39    35    36    1
    40    35    37   ar
    41    35    40   ar
    42    37    38   ar
    43    38    39   ar
    44    39    40   ar
    45    40    41    1
