@<TRIPOS>MOLECULE
lig_CAT-17d
 42 45 0 0 0
SMALL
GASTEIGER

@<TRIPOS>ATOM
      1 C          13.4100   -2.5300   -0.8600 C.2     1  LIG1        0.3222
      2 N          15.3600   -2.5400    0.5300 N.2     1  LIG1       -0.2619
      3 O          12.6400   -2.4100   -1.8000 O.2     1  LIG1       -0.2526
      4 C          14.9600   -2.7100   -0.9300 C.3     1  LIG1        0.2046
      5 N          13.0500   -2.4800    0.4700 N.am    1  LIG1       -0.1644
      6 C          14.2600   -2.4900    1.2600 C.2     1  LIG1        0.3370
      7 N          14.2500   -2.3600    2.6000 N.pl3   1  LIG1       -0.2538
      8 C          11.6600   -2.3300    0.9300 C.3     1  LIG1        0.0572
      9 C          15.8400    4.0800   -0.3300 C.ar    1  LIG1       -0.0430
     10 H          16.3200    4.5200    0.5300 H       1  LIG1        0.0633
     11 C          15.6100   -1.5800   -1.7500 C.ar    1  LIG1        0.0034
     12 C          16.4600   -1.8600   -2.8100 C.ar    1  LIG1       -0.0544
     13 C          16.9900   -0.8400   -3.5800 C.ar    1  LIG1       -0.0608
     14 C          16.6900    0.4800   -3.2800 C.ar    1  LIG1       -0.0540
     15 C          15.8600    0.7900   -2.2000 C.ar    1  LIG1       -0.0160
     16 C          15.3100   -0.2500   -1.4400 C.ar    1  LIG1       -0.0467
     17 C          14.9000    4.7400   -1.0200 C.ar    1  LIG1        0.0276
     18 C          16.1500    2.8400   -0.7400 C.ar    1  LIG1       -0.0512
     19 C          15.5700    2.2200   -1.8400 C.ar    1  LIG1        0.0002
     20 C          14.6200    2.9500   -2.5500 C.ar    1  LIG1        0.0352
     21 N          14.2900    4.2300   -2.1300 N.ar    1  LIG1       -0.2627
     22 H          14.6200    5.7400   -0.6800 H       1  LIG1        0.0829
     23 H          14.1500    2.5300   -3.4300 H       1  LIG1        0.0836
     24 H          16.9200    2.3000   -0.1900 H       1  LIG1        0.0625
     25 H          14.6500   -0.0200   -0.6100 H       1  LIG1        0.0628
     26 H          17.1000    1.2800   -3.8900 H       1  LIG1        0.0624
     27 H          16.7200   -2.9000   -3.0300 H       1  LIG1        0.0622
     28 H          17.6400   -1.0700   -4.4200 H       1  LIG1        0.0618
     29 H          13.3700   -2.2900    3.0900 H       1  LIG1        0.2411
     30 H          15.1200   -2.3300    3.1100 H       1  LIG1        0.2411
     31 H          11.3300   -1.3100    0.7400 H       1  LIG1        0.0602
     32 H          11.6100   -2.5500    1.9900 H       1  LIG1        0.0602
     33 H          11.0300   -3.0300    0.3800 H       1  LIG1        0.0602
     34 C          15.3300   -5.1200   -0.6300 C.3     1  LIG1       -0.0455
     35 H          15.0300   -6.0600   -1.0900 H       1  LIG1        0.0269
     36 H          15.0300   -5.0100    0.4000 H       1  LIG1        0.0269
     37 C          15.3300   -3.8900   -1.5000 C.3     1  LIG1        0.0100
     38 H          15.0300   -4.0000   -2.5400 H       1  LIG1        0.0346
     39 C          16.6300   -4.5000   -1.0600 C.3     1  LIG1       -0.0455
     40 H          17.2100   -3.9800   -0.3200 H       1  LIG1        0.0269
     41 H          17.2200   -5.0300   -1.8100 H       1  LIG1        0.0269
     42 H          16.2644   -2.4672    0.9738 H       1  LIG1        0.2589
@<TRIPOS>BOND
     1     1     3    2
     2     1     4    1
     3     1     5   am
     4     2     4    1
     5     2     6    2
     6     2    42    1
     7     4    11    1
     8     4    37    1
     9     5     8    1
    10     5     6    1
    11     6     7    1
    12     7    29    1
    13     7    30    1
    14     8    33    1
    15     8    31    1
    16     8    32    1
    17     9    17   ar
    18     9    18   ar
    19     9    10    1
    20    11    12   ar
    21    11    16   ar
    22    12    13   ar
    23    12    27    1
    24    13    28    1
    25    13    14   ar
    26    14    26    1
    27    14    15   ar
    28    15    19    1
    29    15    16   ar
    30    16    25    1
    31    17    21   ar
    32    17    22    1
    33    18    19   ar
    34    18    24    1
    35    19    20   ar
    36    20    23    1
    37    20    21   ar
    38    34    37    1
    39    34    35    1
    40    34    39    1
    41    34    36    1
    42    37    38    1
    43    37    39    1
    44    39    41    1
    45    39    40    1
