@<TRIPOS>MOLECULE
lig_CAT-4n
 46 49 0 0 0
SMALL
GASTEIGER

@<TRIPOS>ATOM
      1 C          13.4100   -2.5000   -0.8500 C.2     1  LIG1        0.3267
      2 N          15.3800   -2.5400    0.5200 N.2     1  LIG1       -0.2585
      3 O          12.6400   -2.3700   -1.7800 O.2     1  LIG1       -0.2522
      4 C          14.9600   -2.7100   -0.9300 C.3     1  LIG1        0.2275
      5 N          13.0700   -2.4500    0.4800 N.am    1  LIG1       -0.1641
      6 C          14.2800   -2.4800    1.2600 C.2     1  LIG1        0.3372
      7 N          14.2800   -2.3500    2.6000 N.pl3   1  LIG1       -0.2538
      8 C          11.6900   -2.2800    0.9500 C.3     1  LIG1        0.0572
      9 C          15.7300    4.0000   -0.2200 C.ar    1  LIG1        0.0704
     10 C          15.2400   -4.1300   -1.4300 C.ar    1  LIG1        0.0072
     11 C          16.3700   -4.8200   -1.0300 C.ar    1  LIG1       -0.0541
     12 C          16.6000   -6.1300   -1.4400 C.ar    1  LIG1       -0.0614
     13 C          15.7100   -6.7600   -2.2800 C.ar    1  LIG1       -0.0617
     14 C          14.5900   -6.0800   -2.7200 C.ar    1  LIG1       -0.0614
     15 C          14.3500   -4.7800   -2.3100 C.ar    1  LIG1       -0.0541
     16 C          15.6200   -1.5900   -1.7500 C.ar    1  LIG1        0.0078
     17 C          16.4600   -1.8800   -2.8200 C.ar    1  LIG1       -0.0541
     18 C          17.0000   -0.8700   -3.5900 C.ar    1  LIG1       -0.0608
     19 C          16.7200    0.4600   -3.2900 C.ar    1  LIG1       -0.0540
     20 C          15.9100    0.7800   -2.2000 C.ar    1  LIG1       -0.0160
     21 C          15.3500   -0.2500   -1.4500 C.ar    1  LIG1       -0.0464
     22 C          14.9900    4.7500   -1.0400 C.ar    1  LIG1        0.0449
     23 H          14.7100    5.7400   -0.7200 H       1  LIG1        0.0842
     24 C          16.0400    2.7600   -0.6300 C.ar    1  LIG1       -0.0337
     25 C          15.6400    2.2100   -1.8400 C.ar    1  LIG1        0.0015
     26 C          14.9000    3.0400   -2.6800 C.ar    1  LIG1        0.0353
     27 H          14.5800    2.6800   -3.6500 H       1  LIG1        0.0836
     28 N          14.5600    4.3200   -2.2800 N.ar    1  LIG1       -0.2614
     29 H          16.6500    2.1400    0.0300 H       1  LIG1        0.0637
     30 H          14.7000   -0.0100   -0.6100 H       1  LIG1        0.0628
     31 H          17.1400    1.2500   -3.9100 H       1  LIG1        0.0624
     32 H          16.7000   -2.9200   -3.0500 H       1  LIG1        0.0622
     33 H          17.6300   -1.1100   -4.4400 H       1  LIG1        0.0618
     34 H          13.4700   -4.2500   -2.6700 H       1  LIG1        0.0622
     35 H          17.4900   -6.6600   -1.1100 H       1  LIG1        0.0618
     36 H          13.8800   -6.5700   -3.3900 H       1  LIG1        0.0618
     37 H          15.8800   -7.7900   -2.6000 H       1  LIG1        0.0618
     38 H          17.0900   -4.3300   -0.3700 H       1  LIG1        0.0622
     39 H          13.4100   -2.2700    3.1000 H       1  LIG1        0.2411
     40 H          15.1500   -2.3400    3.1000 H       1  LIG1        0.2411
     41 H          11.3600   -1.2600    0.7700 H       1  LIG1        0.0602
     42 H          11.6300   -2.5000    2.0100 H       1  LIG1        0.0602
     43 H          11.0300   -2.9600    0.4100 H       1  LIG1        0.0602
     44 C          16.1500    4.4700    0.9900 C.1     1  LIG1        0.1007
     45 N          16.5000    4.8800    2.0100 N.1     1  LIG1       -0.1908
     46 H          16.2876   -2.4728    0.9580 H       1  LIG1        0.2592
@<TRIPOS>BOND
     1     1     3    2
     2     1     4    1
     3     1     5   am
     4     2     4    1
     5     2     6    2
     6     2    46    1
     7     4    16    1
     8     4    10    1
     9     5     8    1
    10     5     6    1
    11     6     7    1
    12     7    39    1
    13     7    40    1
    14     8    43    1
    15     8    41    1
    16     8    42    1
    17     9    22   ar
    18     9    24   ar
    19     9    44    1
    20    10    15   ar
    21    10    11   ar
    22    11    12   ar
    23    11    38    1
    24    12    13   ar
    25    12    35    1
    26    13    14   ar
    27    13    37    1
    28    14    36    1
    29    14    15   ar
    30    15    34    1
    31    16    17   ar
    32    16    21   ar
    33    17    18   ar
    34    17    32    1
    35    18    33    1
    36    18    19   ar
    37    19    31    1
    38    19    20   ar
    39    20    25    1
    40    20    21   ar
    41    21    30    1
    42    22    28   ar
    43    22    23    1
    44    24    25   ar
    45    24    29    1
    46    25    26   ar
    47    26    27    1
    48    26    28   ar
    49    44    45    3
