lig_CAT-4a
     RDKit          3D

 46 49  0  0  0  0  0  0  0  0999 V2000
   13.4100   -2.5300   -0.8600 C   0  0  0  0  0  0  0  0  0  0  0  0
   15.3600   -2.5400    0.5300 N   0  0  0  0  0  0  0  0  0  0  0  0
   12.6400   -2.4100   -1.8000 O   0  0  0  0  0  0  0  0  0  0  0  0
   14.9600   -2.7100   -0.9300 C   0  0  1  0  0  0  0  0  0  0  0  0
   13.0500   -2.4800    0.4700 N   0  0  0  0  0  0  0  0  0  0  0  0
   14.2600   -2.4900    1.2600 C   0  0  0  0  0  0  0  0  0  0  0  0
   14.2500   -2.3600    2.6000 N   0  0  0  0  0  0  0  0  0  0  0  0
   11.6600   -2.3300    0.9300 C   0  0  0  0  0  0  0  0  0  0  0  0
   15.8400    4.0800   -0.3300 C   0  0  0  0  0  0  0  0  0  0  0  0
   16.3200    4.5200    0.5300 H   0  0  0  0  0  0  0  0  0  0  0  0
   15.2600   -4.1300   -1.4300 C   0  0  0  0  0  0  0  0  0  0  0  0
   16.4000   -4.8000   -1.0100 C   0  0  0  0  0  0  0  0  0  0  0  0
   16.6600   -6.1100   -1.4200 C   0  0  0  0  0  0  0  0  0  0  0  0
   15.7800   -6.7500   -2.2600 C   0  0  0  0  0  0  0  0  0  0  0  0
   14.6500   -6.0900   -2.7100 C   0  0  0  0  0  0  0  0  0  0  0  0
   14.3900   -4.7900   -2.3000 C   0  0  0  0  0  0  0  0  0  0  0  0
   15.6100   -1.5800   -1.7500 C   0  0  0  0  0  0  0  0  0  0  0  0
   16.4600   -1.8600   -2.8100 C   0  0  0  0  0  0  0  0  0  0  0  0
   16.9900   -0.8400   -3.5800 C   0  0  0  0  0  0  0  0  0  0  0  0
   16.6900    0.4800   -3.2800 C   0  0  0  0  0  0  0  0  0  0  0  0
   15.8600    0.7900   -2.2000 C   0  0  0  0  0  0  0  0  0  0  0  0
   15.3100   -0.2500   -1.4400 C   0  0  0  0  0  0  0  0  0  0  0  0
   14.9000    4.7400   -1.0200 C   0  0  0  0  0  0  0  0  0  0  0  0
   14.6200    5.7300   -0.6800 H   0  0  0  0  0  0  0  0  0  0  0  0
   16.1500    2.8400   -0.7400 C   0  0  0  0  0  0  0  0  0  0  0  0
   15.5700    2.2200   -1.8400 C   0  0  0  0  0  0  0  0  0  0  0  0
   14.6200    2.9500   -2.5500 C   0  0  0  0  0  0  0  0  0  0  0  0
   14.1600    2.5300   -3.4300 H   0  0  0  0  0  0  0  0  0  0  0  0
   14.2900    4.2300   -2.1300 C   0  0  0  0  0  0  0  0  0  0  0  0
   13.5500    4.8100   -2.6800 H   0  0  0  0  0  0  0  0  0  0  0  0
   16.9200    2.3000   -0.1900 H   0  0  0  0  0  0  0  0  0  0  0  0
   14.6500   -0.0200   -0.6100 H   0  0  0  0  0  0  0  0  0  0  0  0
   17.1000    1.2800   -3.8900 H   0  0  0  0  0  0  0  0  0  0  0  0
   16.7200   -2.9000   -3.0300 H   0  0  0  0  0  0  0  0  0  0  0  0
   17.6400   -1.0700   -4.4200 H   0  0  0  0  0  0  0  0  0  0  0  0
   13.5100   -4.2700   -2.6700 H   0  0  0  0  0  0  0  0  0  0  0  0
   17.5500   -6.6200   -1.0800 H   0  0  0  0  0  0  0  0  0  0  0  0
   13.9600   -6.5900   -3.3900 H   0  0  0  0  0  0  0  0  0  0  0  0
   15.9700   -7.7800   -2.5800 H   0  0  0  0  0  0  0  0  0  0  0  0
   17.1100   -4.3000   -0.3500 H   0  0  0  0  0  0  0  0  0  0  0  0
   13.3700   -2.2900    3.0900 H   0  0  0  0  0  0  0  0  0  0  0  0
   15.1200   -2.3300    3.1100 H   0  0  0  0  0  0  0  0  0  0  0  0
   11.3300   -1.3100    0.7400 H   0  0  0  0  0  0  0  0  0  0  0  0
   11.6100   -2.5500    1.9900 H   0  0  0  0  0  0  0  0  0  0  0  0
   11.0300   -3.0300    0.3800 H   0  0  0  0  0  0  0  0  0  0  0  0
   16.2644   -2.4672    0.9738 H   0  0  0  0  0  0  0  0  0  0  0  0
  1  3  2  0
  1  4  1  0
  1  5  1  0
  2  4  1  0
  2  6  2  0
  2 46  1  0
  4 17  1  6
  4 11  1  0
  5  8  1  0
  5  6  1  0
  6  7  1  0
  7 41  1  0
  7 42  1  0
  8 45  1  0
  8 43  1  0
  8 44  1  0
  9 23  2  0
  9 25  1  0
  9 10  1  0
 11 16  1  0
 11 12  2  0
 12 13  1  0
 12 40  1  0
 13 14  2  0
 13 37  1  0
 14 15  1  0
 14 39  1  0
 15 38  1  0
 15 16  2  0
 16 36  1  0
 17 18  2  0
 17 22  1  0
 18 19  1  0
 18 34  1  0
 19 35  1  0
 19 20  2  0
 20 33  1  0
 20 21  1  0
 21 26  1  0
 21 22  2  0
 22 32  1  0
 23 29  1  0
 23 24  1  0
 25 26  2  0
 25 31  1  0
 26 27  1  0
 27 28  1  0
 27 29  2  0
 29 30  1  0
M  CHG  1   2   1
M  END
>  <s_m_entry_id>  (1) 
1

>  <s_m_entry_name>  (1) 
lig_CAT-4a.1

>  <s_m_Source_Path>  (1) 
C:\Users\dhahn3\Downloads\bace

>  <s_m_Source_File>  (1) 
lig_CAT-4a.sdf

>  <i_m_Source_File_Index>  (1) 
1

$$$$
