@<TRIPOS>MOLECULE
lig_CAT-13g
 52 55 0 0 0
SMALL
GASTEIGER

@<TRIPOS>ATOM
      1 C          13.4100   -2.5300   -0.8600 C.2     1  LIG1        0.3222
      2 N          15.3600   -2.5400    0.5300 N.2     1  LIG1       -0.2619
      3 O          12.6400   -2.4100   -1.8000 O.2     1  LIG1       -0.2526
      4 C          14.9600   -2.7100   -0.9300 C.3     1  LIG1        0.2046
      5 N          13.0500   -2.4800    0.4700 N.am    1  LIG1       -0.1644
      6 C          14.2600   -2.4900    1.2600 C.2     1  LIG1        0.3370
      7 N          14.2500   -2.3600    2.6000 N.pl3   1  LIG1       -0.2538
      8 C          11.6600   -2.3300    0.9300 C.3     1  LIG1        0.0572
      9 C          15.7300    4.0400   -0.2700 C.ar    1  LIG1        0.0416
     10 CL         16.3800    4.7100    1.2200 Cl      1  LIG1       -0.0835
     11 C          15.6100   -1.5800   -1.7500 C.ar    1  LIG1        0.0034
     12 C          16.4600   -1.8600   -2.8100 C.ar    1  LIG1       -0.0544
     13 C          16.9900   -0.8400   -3.5800 C.ar    1  LIG1       -0.0608
     14 C          16.6900    0.4800   -3.2800 C.ar    1  LIG1       -0.0540
     15 C          15.8600    0.7900   -2.2000 C.ar    1  LIG1       -0.0175
     16 C          15.3100   -0.2500   -1.4400 C.ar    1  LIG1       -0.0468
     17 C          14.8900    4.7400   -1.0300 C.ar    1  LIG1       -0.0434
     18 C          16.0600    2.8100   -0.6800 C.ar    1  LIG1       -0.0357
     19 C          15.5700    2.2200   -1.8400 C.ar    1  LIG1       -0.0165
     20 C          14.7200    2.9900   -2.6200 C.ar    1  LIG1       -0.0539
     21 C          14.3700    4.2700   -2.2200 C.ar    1  LIG1       -0.0598
     22 H          13.7000    4.8800   -2.8200 H       1  LIG1        0.0618
     23 H          14.5900    5.7400   -0.7000 H       1  LIG1        0.0632
     24 H          14.3300    2.6000   -3.5600 H       1  LIG1        0.0624
     25 H          16.7500    2.2300   -0.0700 H       1  LIG1        0.0638
     26 H          14.6500   -0.0200   -0.6100 H       1  LIG1        0.0628
     27 H          17.1000    1.2800   -3.8900 H       1  LIG1        0.0624
     28 H          16.7200   -2.9000   -3.0300 H       1  LIG1        0.0622
     29 H          17.6400   -1.0700   -4.4200 H       1  LIG1        0.0618
     30 H          13.3700   -2.2900    3.0900 H       1  LIG1        0.2411
     31 H          15.1200   -2.3300    3.1100 H       1  LIG1        0.2411
     32 H          11.3300   -1.3100    0.7400 H       1  LIG1        0.0602
     33 H          11.6100   -2.5500    1.9900 H       1  LIG1        0.0602
     34 H          11.0300   -3.0300    0.3800 H       1  LIG1        0.0602
     35 C          16.2000   -6.6900   -1.2200 C.3     1  LIG1       -0.0530
     36 H          16.5000   -7.6400   -1.6800 H       1  LIG1        0.0265
     37 H          16.2300   -6.8400   -0.1300 H       1  LIG1        0.0265
     38 C          14.7700   -6.3500   -1.6300 C.3     1  LIG1       -0.0527
     39 H          14.0800   -7.1200   -1.2700 H       1  LIG1        0.0265
     40 H          14.7000   -6.3500   -2.7300 H       1  LIG1        0.0265
     41 C          14.3400   -4.9800   -1.1000 C.3     1  LIG1       -0.0459
     42 H          14.2700   -5.0300   -0.0000 H       1  LIG1        0.0269
     43 H          13.3400   -4.7400   -1.4700 H       1  LIG1        0.0269
     44 C          15.3300   -3.8900   -1.5000 C.3     1  LIG1        0.0099
     45 H          15.2900   -3.7400   -2.5800 H       1  LIG1        0.0346
     46 C          16.7500   -4.2300   -1.0800 C.3     1  LIG1       -0.0459
     47 H          16.8200   -4.2400    0.0100 H       1  LIG1        0.0269
     48 H          17.4400   -3.4600   -1.4500 H       1  LIG1        0.0269
     49 C          17.1800   -5.6000   -1.6200 C.3     1  LIG1       -0.0527
     50 H          18.1800   -5.8500   -1.2400 H       1  LIG1        0.0265
     51 H          17.2500   -5.5500   -2.7100 H       1  LIG1        0.0265
     52 H          16.2644   -2.4672    0.9738 H       1  LIG1        0.2589
@<TRIPOS>BOND
     1     1     3    2
     2     1     4    1
     3     1     5   am
     4     2     4    1
     5     2     6    2
     6     2    52    1
     7     4    11    1
     8     4    44    1
     9     5     8    1
    10     5     6    1
    11     6     7    1
    12     7    30    1
    13     7    31    1
    14     8    34    1
    15     8    32    1
    16     8    33    1
    17     9    17   ar
    18     9    18   ar
    19     9    10    1
    20    11    12   ar
    21    11    16   ar
    22    12    13   ar
    23    12    28    1
    24    13    29    1
    25    13    14   ar
    26    14    27    1
    27    14    15   ar
    28    15    19    1
    29    15    16   ar
    30    16    26    1
    31    17    21   ar
    32    17    23    1
    33    18    19   ar
    34    18    25    1
    35    19    20   ar
    36    20    24    1
    37    20    21   ar
    38    21    22    1
    39    35    36    1
    40    35    38    1
    41    35    49    1
    42    35    37    1
    43    38    40    1
    44    38    39    1
    45    38    41    1
    46    41    44    1
    47    41    43    1
    48    41    42    1
    49    44    45    1
    50    44    46    1
    51    46    49    1
    52    46    48    1
    53    46    47    1
    54    49    51    1
    55    49    50    1
