@<TRIPOS>MOLECULE
lig_CAT-13h
 46 49 0 0 0
SMALL
GASTEIGER

@<TRIPOS>ATOM
      1 C          13.4100   -2.5300   -0.8600 C.2     1  LIG1        0.3225
      2 N          15.3600   -2.5400    0.5300 N.2     1  LIG1       -0.2617
      3 O          12.6400   -2.4100   -1.8000 O.2     1  LIG1       -0.2526
      4 C          14.9600   -2.7100   -0.9300 C.3     1  LIG1        0.2071
      5 N          13.0500   -2.4800    0.4700 N.am    1  LIG1       -0.1644
      6 C          14.2600   -2.4900    1.2600 C.2     1  LIG1        0.3370
      7 N          14.2500   -2.3600    2.6000 N.pl3   1  LIG1       -0.2538
      8 C          11.6600   -2.3300    0.9300 C.3     1  LIG1        0.0572
      9 C          15.7300    4.0400   -0.2700 C.ar    1  LIG1        0.0416
     10 CL         16.3800    4.7100    1.2200 Cl      1  LIG1       -0.0835
     11 C          15.6100   -1.5800   -1.7500 C.ar    1  LIG1        0.0037
     12 C          16.4600   -1.8600   -2.8100 C.ar    1  LIG1       -0.0544
     13 C          16.9900   -0.8400   -3.5800 C.ar    1  LIG1       -0.0608
     14 C          16.6900    0.4800   -3.2800 C.ar    1  LIG1       -0.0540
     15 C          15.8600    0.7900   -2.2000 C.ar    1  LIG1       -0.0175
     16 C          15.3100   -0.2500   -1.4400 C.ar    1  LIG1       -0.0467
     17 C          14.8900    4.7400   -1.0300 C.ar    1  LIG1       -0.0434
     18 C          16.0600    2.8100   -0.6800 C.ar    1  LIG1       -0.0357
     19 C          15.5700    2.2200   -1.8400 C.ar    1  LIG1       -0.0165
     20 C          14.7200    2.9900   -2.6200 C.ar    1  LIG1       -0.0539
     21 C          14.3700    4.2700   -2.2200 C.ar    1  LIG1       -0.0598
     22 H          13.7000    4.8800   -2.8200 H       1  LIG1        0.0618
     23 H          14.5900    5.7400   -0.7000 H       1  LIG1        0.0632
     24 H          14.3300    2.6000   -3.5600 H       1  LIG1        0.0624
     25 H          16.7500    2.2300   -0.0700 H       1  LIG1        0.0638
     26 H          14.6500   -0.0200   -0.6100 H       1  LIG1        0.0628
     27 H          17.1000    1.2800   -3.8900 H       1  LIG1        0.0624
     28 H          16.7200   -2.9000   -3.0300 H       1  LIG1        0.0622
     29 H          17.6400   -1.0700   -4.4200 H       1  LIG1        0.0618
     30 H          13.3700   -2.2900    3.0900 H       1  LIG1        0.2411
     31 H          15.1200   -2.3300    3.1100 H       1  LIG1        0.2411
     32 H          11.3300   -1.3100    0.7400 H       1  LIG1        0.0602
     33 H          11.6100   -2.5500    1.9900 H       1  LIG1        0.0602
     34 H          11.0300   -3.0300    0.3800 H       1  LIG1        0.0602
     35 C          15.3300   -3.8900   -1.5000 C.3     1  LIG1        0.0188
     36 C          14.3900   -4.2200   -2.5200 C.3     1  LIG1       -0.0553
     37 H          14.6900   -5.1700   -2.9800 H       1  LIG1        0.0236
     38 H          14.3900   -3.4400   -3.2800 H       1  LIG1        0.0236
     39 H          13.4000   -4.3200   -2.0900 H       1  LIG1        0.0236
     40 C          16.7900   -4.1900   -1.6300 C.3     1  LIG1       -0.0427
     41 H          17.5300   -3.4700   -1.2900 H       1  LIG1        0.0272
     42 H          17.1600   -4.7000   -2.5200 H       1  LIG1        0.0272
     43 C          15.9600   -4.9400   -0.6300 C.3     1  LIG1       -0.0427
     44 H          15.7300   -5.9900   -0.7900 H       1  LIG1        0.0272
     45 H          16.0900   -4.7500    0.4400 H       1  LIG1        0.0272
     46 H          16.2644   -2.4672    0.9738 H       1  LIG1        0.2589
@<TRIPOS>BOND
     1     1     3    2
     2     1     4    1
     3     1     5   am
     4     2     4    1
     5     2     6    2
     6     2    46    1
     7     4    11    1
     8     4    35    1
     9     5     8    1
    10     5     6    1
    11     6     7    1
    12     7    30    1
    13     7    31    1
    14     8    34    1
    15     8    32    1
    16     8    33    1
    17     9    17   ar
    18     9    18   ar
    19     9    10    1
    20    11    12   ar
    21    11    16   ar
    22    12    13   ar
    23    12    28    1
    24    13    29    1
    25    13    14   ar
    26    14    27    1
    27    14    15   ar
    28    15    19    1
    29    15    16   ar
    30    16    26    1
    31    17    21   ar
    32    17    23    1
    33    18    19   ar
    34    18    25    1
    35    19    20   ar
    36    20    24    1
    37    20    21   ar
    38    21    22    1
    39    35    36    1
    40    35    40    1
    41    35    43    1
    42    36    38    1
    43    36    37    1
    44    36    39    1
    45    40    42    1
    46    40    41    1
    47    40    43    1
    48    43    44    1
    49    43    45    1
