@<TRIPOS>MOLECULE
lig_CAT-13b
 42 44 0 0 0
SMALL
GASTEIGER

@<TRIPOS>ATOM
      1 C          13.4100   -2.5300   -0.8600 C.2     1  LIG1        0.3219
      2 N          15.3600   -2.5400    0.5300 N.2     1  LIG1       -0.2622
      3 O          12.6400   -2.4100   -1.8000 O.2     1  LIG1       -0.2526
      4 C          14.9600   -2.7100   -0.9300 C.3     1  LIG1        0.2015
      5 C          15.3500   -3.9500   -1.5200 C.3     1  LIG1       -0.0047
      6 H          15.7200   -4.6200   -0.7600 H       1  LIG1        0.0308
      7 H          16.1300   -3.7700   -2.2600 H       1  LIG1        0.0308
      8 C          14.2100   -4.5400   -2.1600 C.3     1  LIG1       -0.0610
      9 H          13.4300   -4.7200   -1.4300 H       1  LIG1        0.0231
     10 H          14.5100   -5.4900   -2.6200 H       1  LIG1        0.0231
     11 H          13.8400   -3.8700   -2.9300 H       1  LIG1        0.0231
     12 N          13.0500   -2.4800    0.4700 N.am    1  LIG1       -0.1645
     13 C          14.2600   -2.4900    1.2600 C.2     1  LIG1        0.3370
     14 N          14.2500   -2.3600    2.6000 N.pl3   1  LIG1       -0.2538
     15 C          11.6600   -2.3300    0.9300 C.3     1  LIG1        0.0572
     16 C          15.6200    4.0100   -0.2200 C.ar    1  LIG1        0.0416
     17 CL         16.1300    4.6300    1.3400 Cl      1  LIG1       -0.0835
     18 C          15.6100   -1.5800   -1.7500 C.ar    1  LIG1        0.0031
     19 C          16.4600   -1.8600   -2.8100 C.ar    1  LIG1       -0.0545
     20 C          16.9900   -0.8400   -3.5800 C.ar    1  LIG1       -0.0608
     21 C          16.6900    0.4800   -3.2800 C.ar    1  LIG1       -0.0540
     22 C          15.8600    0.7900   -2.2000 C.ar    1  LIG1       -0.0175
     23 C          15.3100   -0.2500   -1.4400 C.ar    1  LIG1       -0.0468
     24 C          14.8700    4.7400   -1.0500 C.ar    1  LIG1       -0.0434
     25 C          15.9500    2.7700   -0.6200 C.ar    1  LIG1       -0.0357
     26 C          15.5700    2.2200   -1.8400 C.ar    1  LIG1       -0.0165
     27 C          14.8200    3.0300   -2.6900 C.ar    1  LIG1       -0.0539
     28 C          14.4600    4.3100   -2.2900 C.ar    1  LIG1       -0.0598
     29 H          13.8700    4.9500   -2.9400 H       1  LIG1        0.0618
     30 H          14.5700    5.7400   -0.7300 H       1  LIG1        0.0632
     31 H          14.5100    2.6600   -3.6700 H       1  LIG1        0.0624
     32 H          16.5700    2.1700    0.0400 H       1  LIG1        0.0638
     33 H          14.6500   -0.0200   -0.6100 H       1  LIG1        0.0628
     34 H          17.1000    1.2800   -3.8900 H       1  LIG1        0.0624
     35 H          16.7200   -2.9000   -3.0300 H       1  LIG1        0.0622
     36 H          17.6400   -1.0700   -4.4200 H       1  LIG1        0.0618
     37 H          13.3700   -2.2900    3.0900 H       1  LIG1        0.2411
     38 H          15.1200   -2.3300    3.1100 H       1  LIG1        0.2411
     39 H          11.3300   -1.3100    0.7400 H       1  LIG1        0.0602
     40 H          11.6100   -2.5500    1.9900 H       1  LIG1        0.0602
     41 H          11.0300   -3.0300    0.3800 H       1  LIG1        0.0602
     42 H          16.2644   -2.4672    0.9738 H       1  LIG1        0.2589
@<TRIPOS>BOND
     1     1     3    2
     2     1     4    1
     3     1    12   am
     4     2     4    1
     5     2    13    2
     6     2    42    1
     7     4    18    1
     8     4     5    1
     9     5     7    1
    10     5     8    1
    11     5     6    1
    12     8    11    1
    13     8    10    1
    14     8     9    1
    15    12    15    1
    16    12    13    1
    17    13    14    1
    18    14    37    1
    19    14    38    1
    20    15    41    1
    21    15    39    1
    22    15    40    1
    23    16    24   ar
    24    16    25   ar
    25    16    17    1
    26    18    19   ar
    27    18    23   ar
    28    19    20   ar
    29    19    35    1
    30    20    36    1
    31    20    21   ar
    32    21    34    1
    33    21    22   ar
    34    22    26    1
    35    22    23   ar
    36    23    33    1
    37    24    28   ar
    38    24    30    1
    39    25    26   ar
    40    25    32    1
    41    26    27   ar
    42    27    31    1
    43    27    28   ar
    44    28    29    1
