@<TRIPOS>MOLECULE
lig_CAT-4i
 45 48 0 0 0
SMALL
GASTEIGER

@<TRIPOS>ATOM
      1 C          13.4100   -2.5000   -0.8500 C.2     1  LIG1        0.3267
      2 N          15.3800   -2.5400    0.5200 N.2     1  LIG1       -0.2585
      3 O          12.6400   -2.3700   -1.7800 O.2     1  LIG1       -0.2522
      4 C          14.9600   -2.7100   -0.9300 C.3     1  LIG1        0.2275
      5 N          13.0700   -2.4500    0.4800 N.am    1  LIG1       -0.1641
      6 C          14.2800   -2.4800    1.2600 C.2     1  LIG1        0.3372
      7 N          14.2800   -2.3500    2.6000 N.pl3   1  LIG1       -0.2538
      8 C          11.6900   -2.2800    0.9500 C.3     1  LIG1        0.0572
      9 C          15.7300    4.0000   -0.2200 C.ar    1  LIG1       -0.0583
     10 H          16.0600    4.3700    0.7400 H       1  LIG1        0.0619
     11 C          15.2400   -4.1300   -1.4300 C.ar    1  LIG1        0.0072
     12 C          16.3700   -4.8200   -1.0300 C.ar    1  LIG1       -0.0541
     13 C          16.6000   -6.1300   -1.4400 C.ar    1  LIG1       -0.0614
     14 C          15.7100   -6.7600   -2.2800 C.ar    1  LIG1       -0.0617
     15 C          14.5900   -6.0800   -2.7200 C.ar    1  LIG1       -0.0614
     16 C          14.3500   -4.7800   -2.3100 C.ar    1  LIG1       -0.0541
     17 C          15.6200   -1.5900   -1.7500 C.ar    1  LIG1        0.0078
     18 C          16.4600   -1.8800   -2.8200 C.ar    1  LIG1       -0.0541
     19 C          17.0000   -0.8700   -3.5900 C.ar    1  LIG1       -0.0607
     20 C          16.7200    0.4600   -3.2900 C.ar    1  LIG1       -0.0525
     21 C          15.9100    0.7800   -2.2000 C.ar    1  LIG1        0.0007
     22 C          15.3500   -0.2500   -1.4500 C.ar    1  LIG1       -0.0450
     23 C          14.9900    4.7500   -1.0400 C.ar    1  LIG1       -0.0436
     24 H          14.7100    5.7400   -0.7200 H       1  LIG1        0.0633
     25 C          16.0400    2.7600   -0.6300 C.ar    1  LIG1       -0.0357
     26 C          15.6400    2.2100   -1.8400 C.ar    1  LIG1        0.0710
     27 N          14.9000    3.0400   -2.6800 N.ar    1  LIG1       -0.2550
     28 C          14.5600    4.3200   -2.2800 C.ar    1  LIG1        0.0283
     29 H          16.6500    2.1400    0.0300 H       1  LIG1        0.0639
     30 H          14.7000   -0.0100   -0.6100 H       1  LIG1        0.0628
     31 H          17.1400    1.2500   -3.9100 H       1  LIG1        0.0624
     32 H          16.7000   -2.9200   -3.0500 H       1  LIG1        0.0622
     33 H          17.6300   -1.1100   -4.4400 H       1  LIG1        0.0618
     34 H          13.4700   -4.2500   -2.6700 H       1  LIG1        0.0622
     35 H          17.4900   -6.6600   -1.1100 H       1  LIG1        0.0618
     36 H          13.8800   -6.5700   -3.3900 H       1  LIG1        0.0618
     37 H          15.8800   -7.7900   -2.6000 H       1  LIG1        0.0618
     38 H          17.0900   -4.3300   -0.3700 H       1  LIG1        0.0622
     39 H          13.4100   -2.2700    3.1000 H       1  LIG1        0.2411
     40 H          15.1500   -2.3400    3.1000 H       1  LIG1        0.2411
     41 H          11.3600   -1.2600    0.7700 H       1  LIG1        0.0602
     42 H          11.6300   -2.5000    2.0100 H       1  LIG1        0.0602
     43 H          11.0300   -2.9600    0.4100 H       1  LIG1        0.0602
     44 H          13.9900    4.9800   -2.9100 H       1  LIG1        0.0830
     45 H          16.2876   -2.4728    0.9580 H       1  LIG1        0.2592
@<TRIPOS>BOND
     1     1     3    2
     2     1     4    1
     3     1     5   am
     4     2     4    1
     5     2     6    2
     6     2    45    1
     7     4    17    1
     8     4    11    1
     9     5     8    1
    10     5     6    1
    11     6     7    1
    12     7    39    1
    13     7    40    1
    14     8    43    1
    15     8    41    1
    16     8    42    1
    17     9    23   ar
    18     9    25   ar
    19     9    10    1
    20    11    16   ar
    21    11    12   ar
    22    12    13   ar
    23    12    38    1
    24    13    14   ar
    25    13    35    1
    26    14    15   ar
    27    14    37    1
    28    15    36    1
    29    15    16   ar
    30    16    34    1
    31    17    18   ar
    32    17    22   ar
    33    18    19   ar
    34    18    32    1
    35    19    33    1
    36    19    20   ar
    37    20    31    1
    38    20    21   ar
    39    21    26    1
    40    21    22   ar
    41    22    30    1
    42    23    28   ar
    43    23    24    1
    44    25    26   ar
    45    25    29    1
    46    26    27   ar
    47    27    28   ar
    48    28    44    1
