@<TRIPOS>MOLECULE
lig_CAT-4a
 46 49 0 0 0
SMALL
GASTEIGER

@<TRIPOS>ATOM
      1 C          13.4100   -2.5300   -0.8600 C.2     1  LIG1        0.3267
      2 N          15.3600   -2.5400    0.5300 N.2     1  LIG1       -0.2585
      3 O          12.6400   -2.4100   -1.8000 O.2     1  LIG1       -0.2522
      4 C          14.9600   -2.7100   -0.9300 C.3     1  LIG1        0.2275
      5 N          13.0500   -2.4800    0.4700 N.am    1  LIG1       -0.1641
      6 C          14.2600   -2.4900    1.2600 C.2     1  LIG1        0.3372
      7 N          14.2500   -2.3600    2.6000 N.pl3   1  LIG1       -0.2538
      8 C          11.6600   -2.3300    0.9300 C.3     1  LIG1        0.0572
      9 C          15.8400    4.0800   -0.3300 C.ar    1  LIG1       -0.0612
     10 H          16.3200    4.5200    0.5300 H       1  LIG1        0.0618
     11 C          15.2600   -4.1300   -1.4300 C.ar    1  LIG1        0.0072
     12 C          16.4000   -4.8000   -1.0100 C.ar    1  LIG1       -0.0541
     13 C          16.6600   -6.1100   -1.4200 C.ar    1  LIG1       -0.0614
     14 C          15.7800   -6.7500   -2.2600 C.ar    1  LIG1       -0.0617
     15 C          14.6500   -6.0900   -2.7100 C.ar    1  LIG1       -0.0614
     16 C          14.3900   -4.7900   -2.3000 C.ar    1  LIG1       -0.0541
     17 C          15.6100   -1.5800   -1.7500 C.ar    1  LIG1        0.0078
     18 C          16.4600   -1.8600   -2.8100 C.ar    1  LIG1       -0.0541
     19 C          16.9900   -0.8400   -3.5800 C.ar    1  LIG1       -0.0608
     20 C          16.6900    0.4800   -3.2800 C.ar    1  LIG1       -0.0540
     21 C          15.8600    0.7900   -2.2000 C.ar    1  LIG1       -0.0175
     22 C          15.3100   -0.2500   -1.4400 C.ar    1  LIG1       -0.0464
     23 C          14.9000    4.7400   -1.0200 C.ar    1  LIG1       -0.0617
     24 H          14.6200    5.7300   -0.6800 H       1  LIG1        0.0618
     25 C          16.1500    2.8400   -0.7400 C.ar    1  LIG1       -0.0540
     26 C          15.5700    2.2200   -1.8400 C.ar    1  LIG1       -0.0179
     27 C          14.6200    2.9500   -2.5500 C.ar    1  LIG1       -0.0540
     28 H          14.1600    2.5300   -3.4300 H       1  LIG1        0.0624
     29 C          14.2900    4.2300   -2.1300 C.ar    1  LIG1       -0.0612
     30 H          13.5500    4.8100   -2.6800 H       1  LIG1        0.0618
     31 H          16.9200    2.3000   -0.1900 H       1  LIG1        0.0624
     32 H          14.6500   -0.0200   -0.6100 H       1  LIG1        0.0628
     33 H          17.1000    1.2800   -3.8900 H       1  LIG1        0.0624
     34 H          16.7200   -2.9000   -3.0300 H       1  LIG1        0.0622
     35 H          17.6400   -1.0700   -4.4200 H       1  LIG1        0.0618
     36 H          13.5100   -4.2700   -2.6700 H       1  LIG1        0.0622
     37 H          17.5500   -6.6200   -1.0800 H       1  LIG1        0.0618
     38 H          13.9600   -6.5900   -3.3900 H       1  LIG1        0.0618
     39 H          15.9700   -7.7800   -2.5800 H       1  LIG1        0.0618
     40 H          17.1100   -4.3000   -0.3500 H       1  LIG1        0.0622
     41 H          13.3700   -2.2900    3.0900 H       1  LIG1        0.2411
     42 H          15.1200   -2.3300    3.1100 H       1  LIG1        0.2411
     43 H          11.3300   -1.3100    0.7400 H       1  LIG1        0.0602
     44 H          11.6100   -2.5500    1.9900 H       1  LIG1        0.0602
     45 H          11.0300   -3.0300    0.3800 H       1  LIG1        0.0602
     46 H          16.2644   -2.4672    0.9738 H       1  LIG1        0.2592
@<TRIPOS>BOND
     1     1     3    2
     2     1     4    1
     3     1     5   am
     4     2     4    1
     5     2     6    2
     6     2    46    1
     7     4    17    1
     8     4    11    1
     9     5     8    1
    10     5     6    1
    11     6     7    1
    12     7    41    1
    13     7    42    1
    14     8    45    1
    15     8    43    1
    16     8    44    1
    17     9    23   ar
    18     9    25   ar
    19     9    10    1
    20    11    16   ar
    21    11    12   ar
    22    12    13   ar
    23    12    40    1
    24    13    14   ar
    25    13    37    1
    26    14    15   ar
    27    14    39    1
    28    15    38    1
    29    15    16   ar
    30    16    36    1
    31    17    18   ar
    32    17    22   ar
    33    18    19   ar
    34    18    34    1
    35    19    35    1
    36    19    20   ar
    37    20    33    1
    38    20    21   ar
    39    21    26    1
    40    21    22   ar
    41    22    32    1
    42    23    29   ar
    43    23    24    1
    44    25    26   ar
    45    25    31    1
    46    26    27   ar
    47    27    28    1
    48    27    29   ar
    49    29    30    1
