@<TRIPOS>MOLECULE
lig_CAT-4d
 53 56 0 0 0
SMALL
GASTEIGER

@<TRIPOS>ATOM
      1 C          13.4100   -2.5000   -0.8500 C.2     1  LIG1        0.3267
      2 N          15.3800   -2.5400    0.5200 N.2     1  LIG1       -0.2585
      3 O          12.6400   -2.3700   -1.7800 O.2     1  LIG1       -0.2522
      4 C          14.9600   -2.7100   -0.9300 C.3     1  LIG1        0.2275
      5 N          13.0700   -2.4500    0.4800 N.am    1  LIG1       -0.1641
      6 C          14.2800   -2.4800    1.2600 C.2     1  LIG1        0.3372
      7 N          14.2800   -2.3500    2.6000 N.pl3   1  LIG1       -0.2538
      8 C          11.6900   -2.2800    0.9500 C.3     1  LIG1        0.0572
      9 C          15.7300    4.0000   -0.2200 C.ar    1  LIG1        0.1211
     10 O          16.1700    4.5000    1.0500 O.3     1  LIG1       -0.4922
     11 C          15.7600    5.8300    1.3500 C.3     1  LIG1        0.0868
     12 C          16.2600    6.2100    2.6300 C.3     1  LIG1       -0.0307
     13 H          15.9400    7.2200    2.8600 H       1  LIG1        0.0262
     14 H          17.3400    6.1500    2.6200 H       1  LIG1        0.0262
     15 H          15.8600    5.5300    3.3900 H       1  LIG1        0.0262
     16 H          14.6700    5.8800    1.3500 H       1  LIG1        0.0694
     17 H          16.1500    6.5100    0.5900 H       1  LIG1        0.0694
     18 C          15.2400   -4.1300   -1.4300 C.ar    1  LIG1        0.0072
     19 C          16.3700   -4.8200   -1.0300 C.ar    1  LIG1       -0.0541
     20 C          16.6000   -6.1300   -1.4400 C.ar    1  LIG1       -0.0614
     21 C          15.7100   -6.7600   -2.2800 C.ar    1  LIG1       -0.0617
     22 C          14.5900   -6.0800   -2.7200 C.ar    1  LIG1       -0.0614
     23 C          14.3500   -4.7800   -2.3100 C.ar    1  LIG1       -0.0541
     24 C          15.6200   -1.5900   -1.7500 C.ar    1  LIG1        0.0078
     25 C          16.4600   -1.8800   -2.8200 C.ar    1  LIG1       -0.0541
     26 C          17.0000   -0.8700   -3.5900 C.ar    1  LIG1       -0.0608
     27 C          16.7200    0.4600   -3.2900 C.ar    1  LIG1       -0.0540
     28 C          15.9100    0.7800   -2.2000 C.ar    1  LIG1       -0.0174
     29 C          15.3500   -0.2500   -1.4500 C.ar    1  LIG1       -0.0464
     30 C          14.9900    4.7500   -1.0400 C.ar    1  LIG1       -0.0199
     31 H          14.7100    5.7400   -0.7200 H       1  LIG1        0.0654
     32 C          16.0400    2.7600   -0.6300 C.ar    1  LIG1       -0.0122
     33 C          15.6400    2.2100   -1.8400 C.ar    1  LIG1       -0.0144
     34 C          14.9000    3.0400   -2.6800 C.ar    1  LIG1       -0.0538
     35 H          14.5800    2.6800   -3.6500 H       1  LIG1        0.0624
     36 C          14.5600    4.3200   -2.2800 C.ar    1  LIG1       -0.0577
     37 H          13.9900    4.9700   -2.9200 H       1  LIG1        0.0619
     38 H          16.6500    2.1400    0.0300 H       1  LIG1        0.0660
     39 H          14.7000   -0.0100   -0.6100 H       1  LIG1        0.0628
     40 H          17.1400    1.2500   -3.9100 H       1  LIG1        0.0624
     41 H          16.7000   -2.9200   -3.0500 H       1  LIG1        0.0622
     42 H          17.6300   -1.1100   -4.4400 H       1  LIG1        0.0618
     43 H          13.4700   -4.2500   -2.6700 H       1  LIG1        0.0622
     44 H          17.4900   -6.6600   -1.1100 H       1  LIG1        0.0618
     45 H          13.8800   -6.5700   -3.3900 H       1  LIG1        0.0618
     46 H          15.8800   -7.7900   -2.6000 H       1  LIG1        0.0618
     47 H          17.0900   -4.3300   -0.3700 H       1  LIG1        0.0622
     48 H          13.4100   -2.2700    3.1000 H       1  LIG1        0.2411
     49 H          15.1500   -2.3400    3.1000 H       1  LIG1        0.2411
     50 H          11.3600   -1.2600    0.7700 H       1  LIG1        0.0602
     51 H          11.6300   -2.5000    2.0100 H       1  LIG1        0.0602
     52 H          11.0300   -2.9600    0.4100 H       1  LIG1        0.0602
     53 H          16.2876   -2.4728    0.9580 H       1  LIG1        0.2592
@<TRIPOS>BOND
     1     1     3    2
     2     1     4    1
     3     1     5   am
     4     2     4    1
     5     2     6    2
     6     2    53    1
     7     4    24    1
     8     4    18    1
     9     5     8    1
    10     5     6    1
    11     6     7    1
    12     7    48    1
    13     7    49    1
    14     8    52    1
    15     8    50    1
    16     8    51    1
    17     9    30   ar
    18     9    32   ar
    19     9    10    1
    20    10    11    1
    21    11    17    1
    22    11    16    1
    23    11    12    1
    24    12    14    1
    25    12    13    1
    26    12    15    1
    27    18    23   ar
    28    18    19   ar
    29    19    20   ar
    30    19    47    1
    31    20    21   ar
    32    20    44    1
    33    21    22   ar
    34    21    46    1
    35    22    45    1
    36    22    23   ar
    37    23    43    1
    38    24    25   ar
    39    24    29   ar
    40    25    26   ar
    41    25    41    1
    42    26    42    1
    43    26    27   ar
    44    27    40    1
    45    27    28   ar
    46    28    33    1
    47    28    29   ar
    48    29    39    1
    49    30    36   ar
    50    30    31    1
    51    32    33   ar
    52    32    38    1
    53    33    34   ar
    54    34    35    1
    55    34    36   ar
    56    36    37    1
