@<TRIPOS>MOLECULE
lig_CAT-13i
 46 49 0 0 0
SMALL
GASTEIGER

@<TRIPOS>ATOM
      1 C          13.4100   -2.5300   -0.8600 C.2     1  LIG1        0.3219
      2 N          15.3600   -2.5400    0.5300 N.2     1  LIG1       -0.2622
      3 O          12.6400   -2.4100   -1.8000 O.2     1  LIG1       -0.2526
      4 C          14.9600   -2.7100   -0.9300 C.3     1  LIG1        0.2020
      5 C          15.3500   -3.9500   -1.5200 C.3     1  LIG1        0.0010
      6 H          16.4300   -4.0200   -1.5400 H       1  LIG1        0.0313
      7 H          14.9600   -4.0000   -2.5400 H       1  LIG1        0.0313
      8 N          13.0500   -2.4800    0.4700 N.am    1  LIG1       -0.1645
      9 C          14.2600   -2.4900    1.2600 C.2     1  LIG1        0.3370
     10 N          14.2500   -2.3600    2.6000 N.pl3   1  LIG1       -0.2538
     11 C          11.6600   -2.3300    0.9300 C.3     1  LIG1        0.0572
     12 C          15.7300    4.0400   -0.2700 C.ar    1  LIG1        0.0416
     13 CL         16.3800    4.7100    1.2200 Cl      1  LIG1       -0.0835
     14 C          15.6100   -1.5800   -1.7500 C.ar    1  LIG1        0.0031
     15 C          16.4600   -1.8600   -2.8100 C.ar    1  LIG1       -0.0545
     16 C          16.9900   -0.8400   -3.5800 C.ar    1  LIG1       -0.0608
     17 C          16.6900    0.4800   -3.2800 C.ar    1  LIG1       -0.0540
     18 C          15.8600    0.7900   -2.2000 C.ar    1  LIG1       -0.0175
     19 C          15.3100   -0.2500   -1.4400 C.ar    1  LIG1       -0.0468
     20 C          14.8900    4.7400   -1.0300 C.ar    1  LIG1       -0.0434
     21 C          16.0600    2.8100   -0.6800 C.ar    1  LIG1       -0.0357
     22 C          15.5700    2.2200   -1.8400 C.ar    1  LIG1       -0.0165
     23 C          14.7200    2.9900   -2.6200 C.ar    1  LIG1       -0.0539
     24 C          14.3700    4.2700   -2.2200 C.ar    1  LIG1       -0.0598
     25 H          13.7000    4.8800   -2.8200 H       1  LIG1        0.0618
     26 H          14.5900    5.7400   -0.7000 H       1  LIG1        0.0632
     27 H          14.3300    2.6000   -3.5600 H       1  LIG1        0.0624
     28 H          16.7500    2.2300   -0.0700 H       1  LIG1        0.0638
     29 H          14.6500   -0.0200   -0.6100 H       1  LIG1        0.0628
     30 H          17.1000    1.2800   -3.8900 H       1  LIG1        0.0624
     31 H          16.7200   -2.9000   -3.0300 H       1  LIG1        0.0622
     32 H          17.6400   -1.0700   -4.4200 H       1  LIG1        0.0618
     33 H          13.3700   -2.2900    3.0900 H       1  LIG1        0.2411
     34 H          15.1200   -2.3300    3.1100 H       1  LIG1        0.2411
     35 H          11.3300   -1.3100    0.7400 H       1  LIG1        0.0602
     36 H          11.6100   -2.5500    1.9900 H       1  LIG1        0.0602
     37 H          11.0300   -3.0300    0.3800 H       1  LIG1        0.0602
     38 C          14.7600   -6.3300   -1.4600 C.3     1  LIG1       -0.0498
     39 H          14.9400   -7.2000   -0.8400 H       1  LIG1        0.0268
     40 H          15.1100   -6.4200   -2.4800 H       1  LIG1        0.0268
     41 C          14.8400   -4.9800   -0.8000 C.3     1  LIG1       -0.0368
     42 H          15.0700   -4.9400    0.2600 H       1  LIG1        0.0302
     43 C          13.5100   -5.5400   -1.2100 C.3     1  LIG1       -0.0498
     44 H          13.0100   -5.1000   -2.0700 H       1  LIG1        0.0268
     45 H          12.8400   -5.8800   -0.4300 H       1  LIG1        0.0268
     46 H          16.2644   -2.4672    0.9738 H       1  LIG1        0.2589
@<TRIPOS>BOND
     1     1     3    2
     2     1     4    1
     3     1     8   am
     4     2     4    1
     5     2     9    2
     6     2    46    1
     7     4    14    1
     8     4     5    1
     9     5     7    1
    10     5     6    1
    11     5    41    1
    12     8    11    1
    13     8     9    1
    14     9    10    1
    15    10    33    1
    16    10    34    1
    17    11    37    1
    18    11    35    1
    19    11    36    1
    20    12    20   ar
    21    12    21   ar
    22    12    13    1
    23    14    15   ar
    24    14    19   ar
    25    15    16   ar
    26    15    31    1
    27    16    32    1
    28    16    17   ar
    29    17    30    1
    30    17    18   ar
    31    18    22    1
    32    18    19   ar
    33    19    29    1
    34    20    24   ar
    35    20    26    1
    36    21    22   ar
    37    21    28    1
    38    22    23   ar
    39    23    27    1
    40    23    24   ar
    41    24    25    1
    42    38    40    1
    43    38    43    1
    44    38    39    1
    45    38    41    1
    46    41    43    1
    47    41    42    1
    48    43    44    1
    49    43    45    1
