@<TRIPOS>MOLECULE
lig_CAT-13c
 45 47 0 0 0
SMALL
GASTEIGER

@<TRIPOS>ATOM
      1 C          13.4100   -2.5300   -0.8600 C.2     1  LIG1        0.3222
      2 N          15.3600   -2.5400    0.5300 N.2     1  LIG1       -0.2620
      3 O          12.6400   -2.4100   -1.8000 O.2     1  LIG1       -0.2526
      4 C          14.9600   -2.7100   -0.9300 C.3     1  LIG1        0.2041
      5 C          15.3500   -3.9500   -1.5200 C.3     1  LIG1        0.0043
      6 C          15.5900   -4.9100   -0.5000 C.3     1  LIG1       -0.0584
      7 H          16.3900   -4.5600    0.1500 H       1  LIG1        0.0234
      8 H          15.8900   -5.8600   -0.9600 H       1  LIG1        0.0234
      9 H          14.6900   -5.0600    0.0800 H       1  LIG1        0.0234
     10 N          13.0500   -2.4800    0.4700 N.am    1  LIG1       -0.1644
     11 H          16.2500   -3.8000   -2.1100 H       1  LIG1        0.0341
     12 C          14.2600   -2.4900    1.2600 C.2     1  LIG1        0.3370
     13 N          14.2500   -2.3600    2.6000 N.pl3   1  LIG1       -0.2538
     14 C          14.3000   -4.4100   -2.3800 C.3     1  LIG1       -0.0584
     15 C          11.6600   -2.3300    0.9300 C.3     1  LIG1        0.0572
     16 C          15.7300    4.0400   -0.2700 C.ar    1  LIG1        0.0416
     17 H          14.5900   -5.3600   -2.8300 H       1  LIG1        0.0234
     18 CL         16.3800    4.7100    1.2200 Cl      1  LIG1       -0.0835
     19 C          15.6100   -1.5800   -1.7500 C.ar    1  LIG1        0.0034
     20 H          14.1100   -3.6800   -3.1600 H       1  LIG1        0.0234
     21 C          16.4600   -1.8600   -2.8100 C.ar    1  LIG1       -0.0544
     22 C          16.9900   -0.8400   -3.5800 C.ar    1  LIG1       -0.0608
     23 H          13.3900   -4.5600   -1.7900 H       1  LIG1        0.0234
     24 C          16.6900    0.4800   -3.2800 C.ar    1  LIG1       -0.0540
     25 C          15.8600    0.7900   -2.2000 C.ar    1  LIG1       -0.0175
     26 C          15.3100   -0.2500   -1.4400 C.ar    1  LIG1       -0.0468
     27 C          14.8900    4.7400   -1.0300 C.ar    1  LIG1       -0.0434
     28 C          16.0600    2.8100   -0.6800 C.ar    1  LIG1       -0.0357
     29 C          15.5700    2.2200   -1.8400 C.ar    1  LIG1       -0.0165
     30 C          14.7200    2.9900   -2.6200 C.ar    1  LIG1       -0.0539
     31 C          14.3700    4.2700   -2.2200 C.ar    1  LIG1       -0.0598
     32 H          13.7000    4.8800   -2.8200 H       1  LIG1        0.0618
     33 H          14.5900    5.7400   -0.7000 H       1  LIG1        0.0632
     34 H          14.3300    2.6000   -3.5600 H       1  LIG1        0.0624
     35 H          16.7500    2.2300   -0.0700 H       1  LIG1        0.0638
     36 H          14.6500   -0.0200   -0.6100 H       1  LIG1        0.0628
     37 H          17.1000    1.2800   -3.8900 H       1  LIG1        0.0624
     38 H          16.7200   -2.9000   -3.0300 H       1  LIG1        0.0622
     39 H          17.6400   -1.0700   -4.4200 H       1  LIG1        0.0618
     40 H          13.3700   -2.2900    3.0900 H       1  LIG1        0.2411
     41 H          15.1200   -2.3300    3.1100 H       1  LIG1        0.2411
     42 H          11.3300   -1.3100    0.7400 H       1  LIG1        0.0602
     43 H          11.6100   -2.5500    1.9900 H       1  LIG1        0.0602
     44 H          11.0300   -3.0300    0.3800 H       1  LIG1        0.0602
     45 H          16.2644   -2.4672    0.9738 H       1  LIG1        0.2589
@<TRIPOS>BOND
     1     1     3    2
     2     1     4    1
     3     1    10   am
     4     2     4    1
     5     2    12    2
     6     2    45    1
     7     4    19    1
     8     4     5    1
     9     5    14    1
    10     5    11    1
    11     5     6    1
    12     6     8    1
    13     6     9    1
    14     6     7    1
    15    10    15    1
    16    10    12    1
    17    12    13    1
    18    13    40    1
    19    13    41    1
    20    14    20    1
    21    14    17    1
    22    14    23    1
    23    15    44    1
    24    15    42    1
    25    15    43    1
    26    16    27   ar
    27    16    28   ar
    28    16    18    1
    29    19    21   ar
    30    19    26   ar
    31    21    22   ar
    32    21    38    1
    33    22    39    1
    34    22    24   ar
    35    24    37    1
    36    24    25   ar
    37    25    29    1
    38    25    26   ar
    39    26    36    1
    40    27    31   ar
    41    27    33    1
    42    28    29   ar
    43    28    35    1
    44    29    30   ar
    45    30    34    1
    46    30    31   ar
    47    31    32    1
