@<TRIPOS>MOLECULE
lig_CAT-17f
 43 46 0 0 0
SMALL
GASTEIGER

@<TRIPOS>ATOM
      1 C          13.4100   -2.5300   -0.8600 C.2     1  LIG1        0.3222
      2 N          15.3600   -2.5400    0.5300 N.2     1  LIG1       -0.2619
      3 O          12.6400   -2.4100   -1.8000 O.2     1  LIG1       -0.2526
      4 C          14.9600   -2.7100   -0.9300 C.3     1  LIG1        0.2046
      5 N          13.0500   -2.4800    0.4700 N.am    1  LIG1       -0.1644
      6 C          14.2600   -2.4900    1.2600 C.2     1  LIG1        0.3370
      7 N          14.2500   -2.3600    2.6000 N.pl3   1  LIG1       -0.2538
      8 C          11.6600   -2.3300    0.9300 C.3     1  LIG1        0.0572
      9 C          15.8400    4.0800   -0.3300 C.ar    1  LIG1        0.0704
     10 C          15.6100   -1.5800   -1.7500 C.ar    1  LIG1        0.0034
     11 C          16.4600   -1.8600   -2.8100 C.ar    1  LIG1       -0.0544
     12 C          16.9900   -0.8400   -3.5800 C.ar    1  LIG1       -0.0608
     13 C          16.6900    0.4800   -3.2800 C.ar    1  LIG1       -0.0540
     14 C          15.8600    0.7900   -2.2000 C.ar    1  LIG1       -0.0160
     15 C          15.3100   -0.2500   -1.4400 C.ar    1  LIG1       -0.0467
     16 C          14.9000    4.7400   -1.0200 C.ar    1  LIG1        0.0449
     17 C          16.1500    2.8400   -0.7400 C.ar    1  LIG1       -0.0337
     18 C          15.5700    2.2200   -1.8400 C.ar    1  LIG1        0.0015
     19 C          14.6200    2.9500   -2.5500 C.ar    1  LIG1        0.0353
     20 N          14.2900    4.2300   -2.1300 N.ar    1  LIG1       -0.2614
     21 H          14.6200    5.7400   -0.6800 H       1  LIG1        0.0842
     22 H          14.1500    2.5300   -3.4300 H       1  LIG1        0.0836
     23 H          16.9200    2.3000   -0.1900 H       1  LIG1        0.0637
     24 H          14.6500   -0.0200   -0.6100 H       1  LIG1        0.0628
     25 H          17.1000    1.2800   -3.8900 H       1  LIG1        0.0624
     26 H          16.7200   -2.9000   -3.0300 H       1  LIG1        0.0622
     27 H          17.6400   -1.0700   -4.4200 H       1  LIG1        0.0618
     28 H          13.3700   -2.2900    3.0900 H       1  LIG1        0.2411
     29 H          15.1200   -2.3300    3.1100 H       1  LIG1        0.2411
     30 H          11.3300   -1.3100    0.7400 H       1  LIG1        0.0602
     31 H          11.6100   -2.5500    1.9900 H       1  LIG1        0.0602
     32 H          11.0300   -3.0300    0.3800 H       1  LIG1        0.0602
     33 C          15.3300   -5.1200   -0.6300 C.3     1  LIG1       -0.0455
     34 H          15.0300   -6.0600   -1.0900 H       1  LIG1        0.0269
     35 H          15.0300   -5.0100    0.4000 H       1  LIG1        0.0269
     36 C          15.3300   -3.8900   -1.5000 C.3     1  LIG1        0.0100
     37 H          15.0300   -4.0000   -2.5400 H       1  LIG1        0.0346
     38 C          16.6300   -4.5000   -1.0600 C.3     1  LIG1       -0.0455
     39 H          17.2100   -3.9800   -0.3200 H       1  LIG1        0.0269
     40 H          17.2200   -5.0300   -1.8100 H       1  LIG1        0.0269
     41 C          16.4400    4.6400    0.7600 C.1     1  LIG1        0.1007
     42 N          16.9600    5.1100    1.6800 N.1     1  LIG1       -0.1908
     43 H          16.2644   -2.4672    0.9738 H       1  LIG1        0.2589
@<TRIPOS>BOND
     1     1     3    2
     2     1     4    1
     3     1     5   am
     4     2     4    1
     5     2     6    2
     6     2    43    1
     7     4    10    1
     8     4    36    1
     9     5     8    1
    10     5     6    1
    11     6     7    1
    12     7    28    1
    13     7    29    1
    14     8    32    1
    15     8    30    1
    16     8    31    1
    17     9    16   ar
    18     9    17   ar
    19     9    41    1
    20    10    11   ar
    21    10    15   ar
    22    11    12   ar
    23    11    26    1
    24    12    27    1
    25    12    13   ar
    26    13    25    1
    27    13    14   ar
    28    14    18    1
    29    14    15   ar
    30    15    24    1
    31    16    20   ar
    32    16    21    1
    33    17    18   ar
    34    17    23    1
    35    18    19   ar
    36    19    22    1
    37    19    20   ar
    38    33    36    1
    39    33    34    1
    40    33    38    1
    41    33    35    1
    42    36    37    1
    43    36    38    1
    44    38    40    1
    45    38    39    1
    46    41    42    3
