@<TRIPOS>MOLECULE
lig_CAT-13f
 49 52 0 0 0
SMALL
GASTEIGER

@<TRIPOS>ATOM
      1 C          13.4100   -2.5300   -0.8600 C.2     1  LIG1        0.3222
      2 N          15.3600   -2.5400    0.5300 N.2     1  LIG1       -0.2619
      3 O          12.6400   -2.4100   -1.8000 O.2     1  LIG1       -0.2526
      4 C          14.9600   -2.7100   -0.9300 C.3     1  LIG1        0.2046
      5 N          13.0500   -2.4800    0.4700 N.am    1  LIG1       -0.1644
      6 C          14.2600   -2.4900    1.2600 C.2     1  LIG1        0.3370
      7 N          14.2500   -2.3600    2.6000 N.pl3   1  LIG1       -0.2538
      8 C          11.6600   -2.3300    0.9300 C.3     1  LIG1        0.0572
      9 C          15.6200    4.0100   -0.2200 C.ar    1  LIG1        0.0416
     10 CL         16.1300    4.6300    1.3400 Cl      1  LIG1       -0.0835
     11 C          15.6100   -1.5800   -1.7500 C.ar    1  LIG1        0.0034
     12 C          16.4600   -1.8600   -2.8100 C.ar    1  LIG1       -0.0544
     13 C          16.9900   -0.8400   -3.5800 C.ar    1  LIG1       -0.0608
     14 C          16.6900    0.4800   -3.2800 C.ar    1  LIG1       -0.0540
     15 C          15.8600    0.7900   -2.2000 C.ar    1  LIG1       -0.0175
     16 C          15.3100   -0.2500   -1.4400 C.ar    1  LIG1       -0.0468
     17 C          14.8700    4.7400   -1.0500 C.ar    1  LIG1       -0.0434
     18 C          15.9500    2.7700   -0.6200 C.ar    1  LIG1       -0.0357
     19 C          15.5700    2.2200   -1.8400 C.ar    1  LIG1       -0.0165
     20 C          14.8200    3.0300   -2.6900 C.ar    1  LIG1       -0.0539
     21 C          14.4600    4.3100   -2.2900 C.ar    1  LIG1       -0.0598
     22 H          13.8700    4.9500   -2.9400 H       1  LIG1        0.0618
     23 H          14.5700    5.7400   -0.7300 H       1  LIG1        0.0632
     24 H          14.5100    2.6600   -3.6700 H       1  LIG1        0.0624
     25 H          16.5700    2.1700    0.0400 H       1  LIG1        0.0638
     26 H          14.6500   -0.0200   -0.6100 H       1  LIG1        0.0628
     27 H          17.1000    1.2800   -3.8900 H       1  LIG1        0.0624
     28 H          16.7200   -2.9000   -3.0300 H       1  LIG1        0.0622
     29 H          17.6400   -1.0700   -4.4200 H       1  LIG1        0.0618
     30 H          13.3700   -2.2900    3.0900 H       1  LIG1        0.2411
     31 H          15.1200   -2.3300    3.1100 H       1  LIG1        0.2411
     32 H          11.3300   -1.3100    0.7400 H       1  LIG1        0.0602
     33 H          11.6100   -2.5500    1.9900 H       1  LIG1        0.0602
     34 H          11.0300   -3.0300    0.3800 H       1  LIG1        0.0602
     35 C          16.7600   -5.8100   -1.3800 C.3     1  LIG1       -0.0527
     36 H          17.3800   -6.3400   -0.6500 H       1  LIG1        0.0265
     37 H          17.1900   -6.0000   -2.3700 H       1  LIG1        0.0265
     38 C          16.7300   -4.3200   -1.0900 C.3     1  LIG1       -0.0459
     39 H          17.5000   -3.7700   -1.6300 H       1  LIG1        0.0269
     40 H          16.8700   -4.1400   -0.0200 H       1  LIG1        0.0269
     41 C          15.3300   -3.8900   -1.5000 C.3     1  LIG1        0.0099
     42 H          15.2600   -3.7800   -2.5900 H       1  LIG1        0.0346
     43 C          14.4700   -5.0500   -1.0300 C.3     1  LIG1       -0.0459
     44 H          13.4900   -5.0800   -1.5200 H       1  LIG1        0.0269
     45 H          14.3000   -4.9800    0.0500 H       1  LIG1        0.0269
     46 C          15.3100   -6.2900   -1.3400 C.3     1  LIG1       -0.0527
     47 H          15.0300   -6.7000   -2.3100 H       1  LIG1        0.0265
     48 H          15.1600   -7.0700   -0.5900 H       1  LIG1        0.0265
     49 H          16.2644   -2.4672    0.9738 H       1  LIG1        0.2589
@<TRIPOS>BOND
     1     1     3    2
     2     1     4    1
     3     1     5   am
     4     2     4    1
     5     2     6    2
     6     2    49    1
     7     4    11    1
     8     4    41    1
     9     5     8    1
    10     5     6    1
    11     6     7    1
    12     7    30    1
    13     7    31    1
    14     8    34    1
    15     8    32    1
    16     8    33    1
    17     9    17   ar
    18     9    18   ar
    19     9    10    1
    20    11    12   ar
    21    11    16   ar
    22    12    13   ar
    23    12    28    1
    24    13    29    1
    25    13    14   ar
    26    14    27    1
    27    14    15   ar
    28    15    19    1
    29    15    16   ar
    30    16    26    1
    31    17    21   ar
    32    17    23    1
    33    18    19   ar
    34    18    25    1
    35    19    20   ar
    36    20    24    1
    37    20    21   ar
    38    21    22    1
    39    35    37    1
    40    35    46    1
    41    35    38    1
    42    35    36    1
    43    38    39    1
    44    38    41    1
    45    38    40    1
    46    41    42    1
    47    41    43    1
    48    43    44    1
    49    43    46    1
    50    43    45    1
    51    46    47    1
    52    46    48    1
