1c
  -OEChem-09261917143D

 52 54  0     1  0  0  0  0  0999 V2000
   18.2570  -13.2370   21.7050 N   0  0  0  0  0  0  0  0  0  0  0  0
   18.0560  -11.9400   21.0290 C   0  0  2  0  0  0  0  0  0  0  0  0
   17.3900  -13.7780   22.5950 C   0  0  0  0  0  0  0  0  0  0  0  0
   16.3920  -13.1670   22.9800 O   0  0  0  0  0  0  0  0  0  0  0  0
   16.6510  -11.7490   20.4070 C   0  0  0  0  0  0  0  0  0  0  0  0
   16.1520  -12.6410   19.7200 O   0  0  0  0  0  0  0  0  0  0  0  0
   19.1520  -11.8880   19.9550 C   0  0  0  0  0  0  0  0  0  0  0  0
   17.6450  -15.1780   23.1860 C   0  0  2  0  0  0  0  0  0  0  0  0
   16.0300  -10.5890   20.6540 N   0  0  0  0  0  0  0  0  0  0  0  0
   20.2530  -12.8090   20.4420 C   0  0  0  0  0  0  0  0  0  0  0  0
   16.4040  -15.9670   23.1090 N   0  3  0  0  0  0  0  0  0  0  0  0
   18.1320  -15.1110   24.6520 C   0  0  0  0  0  0  0  0  0  0  0  0
   14.6910  -10.2120   20.2220 C   0  0  0  0  0  0  0  0  0  0  0  0
   19.5370  -13.8370   21.3110 C   0  0  0  0  0  0  0  0  0  0  0  0
   19.5570  -14.6140   24.8230 C   0  0  0  0  0  0  0  0  0  0  0  0
   13.6300  -10.3470   21.3020 C   0  0  0  0  0  0  0  0  0  0  0  0
   19.8010  -13.3110   25.2950 C   0  0  0  0  0  0  0  0  0  0  0  0
   12.8880  -11.5390   21.4360 C   0  0  0  0  0  0  0  0  0  0  0  0
   21.1110  -12.8180   25.4000 C   0  0  0  0  0  0  0  0  0  0  0  0
   11.8800  -11.6380   22.4170 C   0  0  0  0  0  0  0  0  0  0  0  0
   22.1970  -13.6400   25.0520 C   0  0  0  0  0  0  0  0  0  0  0  0
   11.6150  -10.5490   23.2730 C   0  0  0  0  0  0  0  0  0  0  0  0
   21.9670  -14.9600   24.6180 C   0  0  0  0  0  0  0  0  0  0  0  0
   12.3730   -9.3680   23.1620 C   0  0  0  0  0  0  0  0  0  0  0  0
   20.6500  -15.4470   24.5020 C   0  0  0  0  0  0  0  0  0  0  0  0
   13.3710   -9.2680   22.1730 C   0  0  0  0  0  0  0  0  0  0  0  0
   18.2370  -11.1570   21.7650 H   0  0  0  0  0  0  0  0  0  0  0  0
   18.7800  -12.2420   18.9920 H   0  0  0  0  0  0  0  0  0  0  0  0
   19.5260  -10.8800   19.8180 H   0  0  0  0  0  0  0  0  0  0  0  0
   18.3730  -15.7310   22.5930 H   0  0  0  0  0  0  0  0  0  0  0  0
   16.5520   -9.8880   21.1800 H   0  0  0  0  0  0  0  0  0  0  0  0
   20.8190  -13.2640   19.6280 H   0  0  0  0  0  0  0  0  0  0  0  0
   20.9570  -12.2460   21.0550 H   0  0  0  0  0  0  0  0  0  0  0  0
   16.5490  -16.8840   23.5060 H   0  0  0  0  0  0  0  0  0  0  0  0
   15.6800  -15.4790   23.6220 H   0  0  0  0  0  0  0  0  0  0  0  0
   16.1190  -16.0510   22.1440 H   0  0  0  0  0  0  0  0  0  0  0  0
   17.4560  -14.4920   25.2440 H   0  0  0  0  0  0  0  0  0  0  0  0
   18.0820  -16.1040   25.1010 H   0  0  0  0  0  0  0  0  0  0  0  0
   14.7290   -9.1610   19.9410 H   0  0  0  0  0  0  0  0  0  0  0  0
   14.3890  -10.7640   19.3290 H   0  0  0  0  0  0  0  0  0  0  0  0
   20.1550  -14.1000   22.1680 H   0  0  0  0  0  0  0  0  0  0  0  0
   19.3510  -14.7430   20.7330 H   0  0  0  0  0  0  0  0  0  0  0  0
   18.9870  -12.6820   25.5980 H   0  0  0  0  0  0  0  0  0  0  0  0
   13.0910  -12.3790   20.7860 H   0  0  0  0  0  0  0  0  0  0  0  0
   21.2680  -11.8150   25.7650 H   0  0  0  0  0  0  0  0  0  0  0  0
   11.3110  -12.5520   22.5210 H   0  0  0  0  0  0  0  0  0  0  0  0
   23.2060  -13.2680   25.1370 H   0  0  0  0  0  0  0  0  0  0  0  0
   22.8040  -15.5980   24.3730 H   0  0  0  0  0  0  0  0  0  0  0  0
   12.0950   -7.9250   24.3750 Br  0  0  0  0  0  0  0  0  0  0  0  0
   20.4850  -16.4560   24.1530 H   0  0  0  0  0  0  0  0  0  0  0  0
   13.9530   -8.3620   22.1010 H   0  0  0  0  0  0  0  0  0  0  0  0
   10.8450  -10.6300   24.0280 H   0  0  0  0  0  0  0  0  0  0  0  0
  1  2  1  0  0  0  0
  1 14  1  0  0  0  0
  1  3  1  0  0  0  0
  2  5  1  0  0  0  0
  2  7  1  0  0  0  0
  2 27  1  0  0  0  0
  3  8  1  0  0  0  0
  3  4  2  0  0  0  0
  5  6  2  0  0  0  0
  5  9  1  0  0  0  0
  7 10  1  0  0  0  0
  7 28  1  0  0  0  0
  7 29  1  0  0  0  0
  8 11  1  0  0  0  0
  8 12  1  0  0  0  0
  8 30  1  0  0  0  0
  9 13  1  0  0  0  0
  9 31  1  0  0  0  0
 10 14  1  0  0  0  0
 10 32  1  0  0  0  0
 10 33  1  0  0  0  0
 11 34  1  0  0  0  0
 11 35  1  0  0  0  0
 11 36  1  0  0  0  0
 12 15  1  0  0  0  0
 12 37  1  0  0  0  0
 12 38  1  0  0  0  0
 13 16  1  0  0  0  0
 13 39  1  0  0  0  0
 13 40  1  0  0  0  0
 14 41  1  0  0  0  0
 14 42  1  0  0  0  0
 15 17  1  0  0  0  0
 15 25  2  0  0  0  0
 16 18  1  0  0  0  0
 16 26  2  0  0  0  0
 17 19  2  0  0  0  0
 17 43  1  0  0  0  0
 18 20  2  0  0  0  0
 18 44  1  0  0  0  0
 19 21  1  0  0  0  0
 19 45  1  0  0  0  0
 20 22  1  0  0  0  0
 20 46  1  0  0  0  0
 21 23  2  0  0  0  0
 21 47  1  0  0  0  0
 22 24  2  0  0  0  0
 22 52  1  0  0  0  0
 23 25  1  0  0  0  0
 23 48  1  0  0  0  0
 24 26  1  0  0  0  0
 24 49  1  0  0  0  0
 25 50  1  0  0  0  0
 26 51  1  0  0  0  0
M  CHG  1  11   1
M  END
$$$$
