lig_p38a_3flw
                    3D
 Structure written by MMmdl.
 49 51  0  0  1  0            999 V2000
   33.7500   34.7800   23.4700 C   0  0  0  0  0  0
   35.1700   35.7800   20.1300 C   0  0  0  0  0  0
   35.2500   37.1300   20.2300 C   0  0  0  0  0  0
   34.8000   37.8100   21.4400 C   0  0  0  0  0  0
   34.8500   39.2100   21.6200 C   0  0  0  0  0  0
   34.4800   39.7900   22.7800 N   0  0  0  0  0  0
   34.5500   34.9800   21.1800 C   0  0  0  0  0  0
   34.3300   33.7800   21.0200 O   0  0  0  0  0  0
   34.2100   35.6200   22.3400 N   0  0  0  0  0  0
   34.3100   37.0400   22.5100 C   0  0  0  0  0  0
   33.9300   37.6500   23.6600 N   0  0  0  0  0  0
   34.0400   38.9800   23.7400 C   0  0  0  0  0  0
   33.6700   39.5700   24.9300 N   0  0  0  0  0  0
   33.3800   35.3500   24.3200 H   0  0  0  0  0  0
   32.9300   34.1300   23.1600 H   0  0  0  0  0  0
   34.5700   34.1600   23.8300 H   0  0  0  0  0  0
   35.7100   37.7300   19.4700 H   0  0  0  0  0  0
   35.2300   39.8600   20.8400 H   0  0  0  0  0  0
   33.8200   40.5600   24.9800 H   0  0  0  0  0  0
   33.0800   38.7200   26.0400 C   0  0  0  0  0  0
   33.9700   38.8300   27.3000 C   0  0  0  0  0  0
   31.6600   39.2200   26.3700 C   0  0  0  0  0  0
   33.0300   37.6800   25.7200 H   0  0  0  0  0  0
   33.5400   38.2200   28.0900 H   0  0  0  0  0  0
   35.3800   38.3200   26.9700 C   0  0  0  0  0  0
   34.0200   39.8700   27.6200 H   0  0  0  0  0  0
   31.2400   38.6200   27.1700 H   0  0  0  0  0  0
   31.7100   40.2600   26.7000 H   0  0  0  0  0  0
   30.7700   39.1200   25.1200 C   0  0  0  0  0  0
   29.7700   39.4800   25.3600 H   0  0  0  0  0  0
   31.2000   39.7300   24.3200 H   0  0  0  0  0  0
   30.7100   37.7700   24.7000 O   0  0  0  0  0  0
   36.3400   39.0900   27.6600 O   0  0  0  0  0  0
   35.4800   37.2700   27.2600 H   0  0  0  0  0  0
   35.5600   38.4100   25.8900 H   0  0  0  0  0  0
   36.8800   39.5800   27.0400 H   0  0  0  0  0  0
   31.5900   37.4000   24.7000 H   0  0  0  0  0  0
   35.6600   35.1500   19.0200 O   0  0  0  0  0  0
   37.3100   37.9800   16.4300 C   0  0  0  0  0  0
   38.1000   37.4000   17.4300 C   0  0  0  0  0  0
   37.5500   36.4400   18.3000 C   0  0  0  0  0  0
   36.2000   36.0800   18.1700 C   0  0  0  0  0  0
   35.4000   36.6600   17.1700 C   0  0  0  0  0  0
   35.9600   37.6100   16.3000 C   0  0  0  0  0  0
   37.8400   38.8800   15.6100 F   0  0  0  0  0  0
   39.1600   37.6800   17.5400 H   0  0  0  0  0  0
   38.3000   35.8900   19.2500 F   0  0  0  0  0  0
   34.3400   36.3700   17.0700 H   0  0  0  0  0  0
   35.3400   38.0700   15.5100 H   0  0  0  0  0  0
  1  9  1  0  0  0
  1 14  1  0  0  0
  1 15  1  0  0  0
  1 16  1  0  0  0
  2  3  2  0  0  0
  2  7  1  0  0  0
  2 38  1  0  0  0
  3  4  1  0  0  0
  3 17  1  0  0  0
  4  5  1  0  0  0
  4 10  2  0  0  0
  5  6  2  0  0  0
  5 18  1  0  0  0
  6 12  1  0  0  0
  7  8  2  0  0  0
  7  9  1  0  0  0
  9 10  1  0  0  0
 10 11  1  0  0  0
 11 12  2  0  0  0
 12 13  1  0  0  0
 13 19  1  0  0  0
 13 20  1  0  0  0
 20 21  1  0  0  0
 20 22  1  0  0  0
 20 23  1  0  0  0
 21 24  1  0  0  0
 21 25  1  0  0  0
 21 26  1  0  0  0
 22 27  1  0  0  0
 22 28  1  0  0  0
 22 29  1  0  0  0
 25 33  1  0  0  0
 25 34  1  0  0  0
 25 35  1  0  0  0
 29 30  1  0  0  0
 29 31  1  0  0  0
 29 32  1  0  0  0
 32 37  1  0  0  0
 33 36  1  0  0  0
 38 42  1  0  0  0
 39 40  1  0  0  0
 39 44  2  0  0  0
 39 45  1  0  0  0
 40 41  2  0  0  0
 40 46  1  0  0  0
 41 42  1  0  0  0
 41 47  1  0  0  0
 42 43  2  0  0  0
 43 44  1  0  0  0
 43 48  1  0  0  0
 44 49  1  0  0  0
M  END
> <s_m_entry_id>
29

> <s_m_entry_name>
lig_p38a_3flw.1

> <s_pdb_PDB_TITLE>
MX MODEL

> <i_pdb_PDB_Model>
1

> <r_pdb_PDB_CRYST1_a>
187.86

> <r_pdb_PDB_CRYST1_b>
135.76

> <r_pdb_PDB_CRYST1_c>
251.62

> <r_pdb_PDB_CRYST1_alpha>
90

> <r_pdb_PDB_CRYST1_beta>
90

> <r_pdb_PDB_CRYST1_gamma>
90

> <s_pdb_PDB_CRYST1_Space_Group>
P 1

> <i_pdb_PDB_CRYST1_z>
1

> <s_pdb_PDB_format_version>
3.0

> <s_m_Source_Path>
/users/home/dhahn3/projects/PLBenchmarks/PLBenchmarks/data/2019-12-09_p38/03_docked

> <s_m_Source_File>
lig_p38a_3flw.pdb

> <i_m_Source_File_Index>
1

$$$$
