lig_CAT-17b
     RDKit          3D

 47 50  0  0  0  0  0  0  0  0999 V2000
   13.4100   -2.5300   -0.8600 C   0  0  0  0  0  0  0  0  0  0  0  0
   15.3600   -2.5400    0.5300 N   0  0  0  0  0  0  0  0  0  0  0  0
   12.6400   -2.4100   -1.8000 O   0  0  0  0  0  0  0  0  0  0  0  0
   14.9600   -2.7100   -0.9300 C   0  0  2  0  0  0  0  0  0  0  0  0
   13.0500   -2.4800    0.4700 N   0  0  0  0  0  0  0  0  0  0  0  0
   14.2600   -2.4900    1.2600 C   0  0  0  0  0  0  0  0  0  0  0  0
   14.2500   -2.3600    2.6000 N   0  0  0  0  0  0  0  0  0  0  0  0
   11.6600   -2.3300    0.9300 C   0  0  0  0  0  0  0  0  0  0  0  0
   15.8400    4.0800   -0.3300 C   0  0  0  0  0  0  0  0  0  0  0  0
   15.6100   -1.5800   -1.7500 C   0  0  0  0  0  0  0  0  0  0  0  0
   16.4600   -1.8600   -2.8100 C   0  0  0  0  0  0  0  0  0  0  0  0
   16.9900   -0.8400   -3.5800 C   0  0  0  0  0  0  0  0  0  0  0  0
   16.6900    0.4800   -3.2800 C   0  0  0  0  0  0  0  0  0  0  0  0
   15.8600    0.7900   -2.2000 C   0  0  0  0  0  0  0  0  0  0  0  0
   15.3100   -0.2500   -1.4400 C   0  0  0  0  0  0  0  0  0  0  0  0
   14.9000    4.7400   -1.0200 C   0  0  0  0  0  0  0  0  0  0  0  0
   16.1500    2.8400   -0.7400 C   0  0  0  0  0  0  0  0  0  0  0  0
   15.5700    2.2200   -1.8400 C   0  0  0  0  0  0  0  0  0  0  0  0
   14.6200    2.9500   -2.5500 C   0  0  0  0  0  0  0  0  0  0  0  0
   14.2900    4.2300   -2.1300 C   0  0  0  0  0  0  0  0  0  0  0  0
   13.5500    4.8100   -2.6800 H   0  0  0  0  0  0  0  0  0  0  0  0
   14.6200    5.7400   -0.6800 H   0  0  0  0  0  0  0  0  0  0  0  0
   14.1500    2.5300   -3.4300 H   0  0  0  0  0  0  0  0  0  0  0  0
   16.9200    2.3000   -0.1900 H   0  0  0  0  0  0  0  0  0  0  0  0
   14.6500   -0.0200   -0.6100 H   0  0  0  0  0  0  0  0  0  0  0  0
   17.1000    1.2800   -3.8900 H   0  0  0  0  0  0  0  0  0  0  0  0
   16.7200   -2.9000   -3.0300 H   0  0  0  0  0  0  0  0  0  0  0  0
   17.6400   -1.0700   -4.4200 H   0  0  0  0  0  0  0  0  0  0  0  0
   13.3700   -2.2900    3.0900 H   0  0  0  0  0  0  0  0  0  0  0  0
   15.1200   -2.3300    3.1100 H   0  0  0  0  0  0  0  0  0  0  0  0
   11.3300   -1.3100    0.7400 H   0  0  0  0  0  0  0  0  0  0  0  0
   11.6100   -2.5500    1.9900 H   0  0  0  0  0  0  0  0  0  0  0  0
   11.0300   -3.0300    0.3800 H   0  0  0  0  0  0  0  0  0  0  0  0
   15.3300   -5.1200   -0.6300 C   0  0  0  0  0  0  0  0  0  0  0  0
   15.0300   -6.0600   -1.0900 H   0  0  0  0  0  0  0  0  0  0  0  0
   15.0300   -5.0100    0.4000 H   0  0  0  0  0  0  0  0  0  0  0  0
   15.3300   -3.8900   -1.5000 C   0  0  0  0  0  0  0  0  0  0  0  0
   15.0300   -4.0000   -2.5400 H   0  0  0  0  0  0  0  0  0  0  0  0
   16.6300   -4.5000   -1.0600 C   0  0  0  0  0  0  0  0  0  0  0  0
   17.2100   -3.9800   -0.3200 H   0  0  0  0  0  0  0  0  0  0  0  0
   17.2200   -5.0300   -1.8100 H   0  0  0  0  0  0  0  0  0  0  0  0
   16.4400    4.6400    0.7600 O   0  0  0  0  0  0  0  0  0  0  0  0
   15.6800    5.7600    1.2000 C   0  0  0  0  0  0  0  0  0  0  0  0
   16.1700    6.2100    2.0700 H   0  0  0  0  0  0  0  0  0  0  0  0
   14.6800    5.4400    1.4700 H   0  0  0  0  0  0  0  0  0  0  0  0
   15.6300    6.5000    0.4000 H   0  0  0  0  0  0  0  0  0  0  0  0
   16.2644   -2.4672    0.9738 H   0  0  0  0  0  0  0  0  0  0  0  0
  1  3  2  0
  1  4  1  0
  1  5  1  0
  2  4  1  0
  2  6  2  0
  2 47  1  0
  4 10  1  6
  4 37  1  0
  5  8  1  0
  5  6  1  0
  6  7  1  0
  7 29  1  0
  7 30  1  0
  8 33  1  0
  8 31  1  0
  8 32  1  0
  9 16  2  0
  9 17  1  0
  9 42  1  0
 10 11  2  0
 10 15  1  0
 11 12  1  0
 11 27  1  0
 12 28  1  0
 12 13  2  0
 13 26  1  0
 13 14  1  0
 14 18  1  0
 14 15  2  0
 15 25  1  0
 16 20  1  0
 16 22  1  0
 17 18  2  0
 17 24  1  0
 18 19  1  0
 19 23  1  0
 19 20  2  0
 20 21  1  0
 34 37  1  0
 34 35  1  0
 34 39  1  0
 34 36  1  0
 37 38  1  0
 37 39  1  0
 39 41  1  0
 39 40  1  0
 42 43  1  0
 43 46  1  0
 43 45  1  0
 43 44  1  0
M  CHG  1   2   1
M  END
>  <s_m_entry_id>  (1) 
28

>  <s_m_entry_name>  (1) 
lig_CAT-17b.1

>  <s_m_Source_Path>  (1) 
C:\Users\dhahn3\Downloads\bace

>  <s_m_Source_File>  (1) 
lig_CAT-17b.sdf

>  <i_m_Source_File_Index>  (1) 
1

$$$$
