# Molecule written by the XED library from Cresset
@<TRIPOS>MOLECULE
CatS_9
   102    107      1
SMALL
USER_CHARGES
@<TRIPOS>ATOM
      1  C2        -10.3071   12.5449   -1.4070 C.3       1 MOL1       -0.0824
      2  C3         -9.2449   13.6599   -1.2550 C.3       1 MOL1       -0.0801
      3  C4         -7.8450   13.0980   -0.9328 C.3       1 MOL1       -0.0420
      4  C5         -7.4751   12.0090   -1.9581 C.3       1 MOL1       -0.0550
      5  N1         -8.4611   10.9119   -1.9480 N.4       1 MOL1       -0.2280
      6  C6         -9.7890   11.4261   -2.3391 C.3       1 MOL1       -0.0629
      7  C7         -8.0511    9.8408   -2.8739 C.3       1 MOL1       -0.0441
      8  C8         -9.2122    8.9670   -3.3961 C.3       1 MOL1       -0.0087
      9  S1         -8.6229    7.2971   -3.7880 S.3       1 MOL1       -0.1783
     10  C9         -6.9769    7.4448   -4.4970 C.ar      1 MOL1        0.0480
     11  C10        -6.8400    8.2791   -5.5819 C.ar      1 MOL1       -0.0655
     12  C11        -5.6119    8.4731   -6.1879 C.ar      1 MOL1       -0.0066
     13  C12        -4.5201    7.8040   -5.6681 C.ar      1 MOL1       -0.0846
     14  C13        -4.6600    6.9640   -4.5900 C.ar      1 MOL1       -0.0687
     15  C14        -5.8822    6.7650   -3.9819 C.ar      1 MOL1        0.0171
     16  C15        -5.8379    5.7829   -2.8117 C.3       1 MOL1        0.4149
     17  F1         -6.9881    5.0240   -2.6409 F         1 MOL1       -0.1514
     18  F2         -5.6210    6.4402   -1.6039 F         1 MOL1       -0.1514
     19  F3         -4.7840    4.8928   -2.9850 F         1 MOL1       -0.1514
     20  C16        -5.4260    9.3329   -7.3468 C.ar      1 MOL1        0.0392
     21  C17        -6.2950    9.5778   -8.4370 C.ar      1 MOL1       -0.0684
     22  C18        -5.5920   10.3950   -9.2220 C.ar      1 MOL1        0.0572
     23  N2         -4.3770   10.7051   -8.7038 N.pl3     1 MOL1       -0.0691
     24  N3         -4.3159   10.0140   -7.5451 N.2       1 MOL1       -0.2943
     25  C19        -3.2970   11.5461   -9.2360 C.3       1 MOL1        0.0794
     26  C20        -3.1789   12.9311   -8.5720 C.3       1 MOL1       -0.0608
     27  C21        -2.6129   12.8552   -7.1360 C.3       1 MOL1       -0.0600
     28  N4         -2.1589   14.1780   -6.6711 N.4       1 MOL1       -0.2306
     29  C22        -1.0350   14.6469   -7.5011 C.3       1 MOL1       -0.0596
     30  C23        -0.6072   16.0691   -7.0830 C.3       1 MOL1       -0.0597
     31  C24        -0.2179   16.0932   -5.5911 C.3       1 MOL1        0.0948
     32  C25        -1.3803   15.5269   -4.7461 C.3       1 MOL1       -0.0597
     33  C26        -1.7502   14.1179   -5.2532 C.3       1 MOL1       -0.0596
     34  N5          0.2242   17.4562   -5.2559 N.am      1 MOL1       -0.3966
     35  C27         1.5490   17.7979   -4.7209 C.3       1 MOL1        0.0730
     36  C28         1.5281   19.3311   -4.8611 C.3       1 MOL1       -0.0610
     37  C29         0.0449   19.7371   -4.9070 C.3       1 MOL1       -0.0111
     38  C30        -0.6312   18.4779   -5.3770 C.2       1 MOL1        0.2838
     39  O1         -1.7768   18.4169   -5.8009 O.2       1 MOL1       -0.4204
     40  C31        -6.1373   10.8819  -10.5509 C.3       1 MOL1       -0.0158
     41  C32        -7.2947    9.9759  -11.0291 C.3       1 MOL1        0.0844
     42  N6         -8.3100    9.7580   -9.9747 N.3       1 MOL1       -0.4606
     43  C33        -7.6869    9.0849   -8.8119 C.3       1 MOL1        0.1169
     44  S2         -9.8239    9.2750  -10.3548 S.3       1 MOL1        0.4316
     45  O2         -9.9271    7.9159   -9.9350 O.2       1 MOL1       -0.3139
     46  O3        -10.0369    9.5232  -11.7442 O.2       1 MOL1       -0.3139
     47  C34       -11.0379   10.2519   -9.4259 C.3       1 MOL1        0.0421
     48  H6         -7.8258   12.6340    0.1729 C.3       1 MOL1       -0.1149
     49  H7         -7.0419   13.9872   -0.9920 C.3       1 MOL1       -0.1149
     50  C1        -11.5730   13.1572   -2.0318 H         1 MOL1        0.0467
     51  C35       -10.6960   11.9540   -0.0381 H         1 MOL1        0.0467
     52  H4         -9.5799   14.4280   -0.3961 H         1 MOL1        0.0465
     53  H5         -9.1579   14.2562   -2.2921 H         1 MOL1        0.0465
     54  H8         -6.3920   11.5739   -1.6789 H         1 MOL1        0.0533
     55  H9         -7.4229   12.4993   -3.0519 H         1 MOL1        0.0533
     56  H10       -10.5960   10.5390   -2.3161 H         1 MOL1        0.0529
     57  H11        -9.7202   11.8509   -3.4591 H         1 MOL1        0.0529
     58  H12        -7.5421   10.3461   -3.8371 H         1 MOL1        0.0547
     59  H13        -7.2320    9.1409   -2.3451 H         1 MOL1        0.0547
     60  H14        -9.6421    9.4382   -4.4129 H         1 MOL1        0.0553
     61  H15       -10.0988    8.9231   -2.5878 H         1 MOL1        0.0553
     62  H16        -7.6450    8.7491   -5.9360 H         1 MOL1        0.0929
     63  H17        -3.6200    7.9271   -6.0847 H         1 MOL1        0.0910
     64  H18        -3.8559    6.4840   -4.2372 H         1 MOL1        0.0908
     65  H19        -3.4959   11.7361  -10.4030 H         1 MOL1        0.0605
     66  H20        -2.2541   10.9630   -9.1239 H         1 MOL1        0.0605
     67  H21        -2.4211   13.5669   -9.2510 H         1 MOL1        0.0480
     68  H22        -4.2509   13.4701   -8.5749 H         1 MOL1        0.0480
     69  H23        -1.6842   12.0940   -7.1510 H         1 MOL1        0.0528
     70  H24        -3.4320   12.4031   -6.3819 H         1 MOL1        0.0528
     71  H25        -1.3623   14.6960   -8.6540 H         1 MOL1        0.0528
     72  H26        -0.1030   13.8989   -7.3899 H         1 MOL1        0.0528
     73  H27         0.3311   16.4161   -7.7459 H         1 MOL1        0.0483
     74  H28        -1.5221   16.8237   -7.2631 H         1 MOL1        0.0483
     75  H29         0.7220   15.3600   -5.4470 H         1 MOL1        0.0618
     76  H30        -1.0512   15.4701   -3.5941 H         1 MOL1        0.0483
     77  H31        -2.3411   16.2372   -4.8568 H         1 MOL1        0.0483
     78  H32        -0.8000   13.3963   -5.1271 H         1 MOL1        0.0528
     79  H33        -2.6439   13.6940   -4.5740 H         1 MOL1        0.0528
     80  H34         1.6189   17.4800   -3.5660 H         1 MOL1        0.0593
     81  H35         2.4411   17.3121   -5.3602 H         1 MOL1        0.0593
     82  H36         2.0461   19.6387   -5.9000 H         1 MOL1        0.0476
     83  H37         2.0970   19.8621   -3.9470 H         1 MOL1        0.0476
     84  H38        -0.1411   20.6511   -5.6630 H         1 MOL1        0.0527
     85  H39        -0.3428   20.0139   -3.8061 H         1 MOL1        0.0527
     86  H40        -5.2758   10.8632  -11.3870 H         1 MOL1        0.0516
     87  H41        -6.5429   12.0032  -10.4168 H         1 MOL1        0.0516
     88  H42        -6.8570    8.9130  -11.3721 H         1 MOL1        0.0601
     89  H43        -7.7959   10.5180  -11.9731 H         1 MOL1        0.0601
     90  H44        -8.4338    9.2731   -7.8931 H         1 MOL1        0.0628
     91  H45        -7.6232    7.9082   -9.0371 H         1 MOL1        0.0628
     92  H46       -11.0040    9.9720   -8.2601 H         1 MOL1        0.0588
     93  H47       -10.8131   11.4221   -9.5751 H         1 MOL1        0.0588
     94  H48       -12.1349   10.0060   -9.8449 H         1 MOL1        0.0588
     95  H          -8.5156   10.5607   -1.1104 H         1 MOL1        0.1922
     96  H          -2.8547   14.7613   -6.7484 H         1 MOL1        0.1913
     97  H          -6.8062   12.0599    0.4554 H         1 MOL1        0.0438
     98  H          -7.9896   13.4450    1.0478 H         1 MOL1        0.0438
     99  H          -8.6805   11.8369    0.4165 H         1 MOL1        0.0438
    100  H          -5.9143   13.6675   -0.7165 H         1 MOL1        0.0438
    101  H          -6.9512   14.4418   -2.1009 H         1 MOL1        0.0438
    102  H          -7.3020   14.9457   -0.3116 H         1 MOL1        0.0438
@<TRIPOS>BOND
     1      2      1 1 
     2      3      2 1 
     3      4      3 1 
     4      5      4 1 
     5      6      1 1 
     6      6      5 1 
     7      7      5 1 
     8      8      7 1 
     9      9      8 1 
    10     10      9 1 
    11     11     10 ar
    12     12     11 ar
    13     13     12 ar
    14     14     13 ar
    15     15     10 ar
    16     15     14 ar
    17     16     15 1 
    18     17     16 1 
    19     18     16 1 
    20     19     16 1 
    21     20     12 1 
    22     21     20 ar
    23     22     21 ar
    24     23     22 ar
    25     24     20 ar
    26     24     23 ar
    27     25     23 1 
    28     26     25 1 
    29     27     26 1 
    30     28     27 1 
    31     29     28 1 
    32     30     29 1 
    33     31     30 1 
    34     32     31 1 
    35     33     28 1 
    36     33     32 1 
    37     34     31 1 
    38     35     34 1 
    39     36     35 1 
    40     37     36 1 
    41     38     34 am
    42     38     37 1 
    43     39     38 2 
    44     40     22 1 
    45     41     40 1 
    46     42     41 1 
    47     43     21 1 
    48     43     42 1 
    49     44     42 1 
    50     45     44 2 
    51     46     44 2 
    52     47     44 1 
    53     48      3 1 
    54     49      3 1 
    55      1     50 1 
    56     48     97 1 
    57     48     98 1 
    58     48     99 1 
    59     49    100 1 
    60     49    101 1 
    61     49    102 1 
    62     51      1 1 
    63     52      2 1 
    64     53      2 1 
    65     54      4 1 
    66     55      4 1 
    67     56      6 1 
    68     57      6 1 
    69     58      7 1 
    70     59      7 1 
    71     60      8 1 
    72     61      8 1 
    73     62     11 1 
    74     63     13 1 
    75     64     14 1 
    76     65     25 1 
    77     66     25 1 
    78     67     26 1 
    79     68     26 1 
    80     69     27 1 
    81     70     27 1 
    82     71     29 1 
    83     72     29 1 
    84     73     30 1 
    85     74     30 1 
    86     75     31 1 
    87     76     32 1 
    88     77     32 1 
    89     78     33 1 
    90     79     33 1 
    91     80     35 1 
    92     81     35 1 
    93     82     36 1 
    94     83     36 1 
    95     84     37 1 
    96     85     37 1 
    97     86     40 1 
    98     87     40 1 
    99     88     41 1 
   100     89     41 1 
   101     90     43 1 
   102     91     43 1 
   103     92     47 1 
   104     93     47 1 
   105     94     47 1 
   106     95      5 1 
   107     96     28 1 
@<TRIPOS>SUBSTRUCTURE
     1 MOL1         1 MOLECULE          1 A
