CatS_130
 OpenBabel05281909343D

 96100  0  0  1  0  0  0  0  0999 V2000
   -4.4861    7.5392   -5.7131 C   0  0  0  0  0  0  0  0  0  0  0  0
   -4.6603    6.7109   -4.6311 C   0  0  0  0  0  0  0  0  0  0  0  0
   -5.8700    6.6379   -3.9731 C   0  0  0  0  0  0  0  0  0  0  0  0
   -6.9110    7.4268   -4.4418 C   0  0  0  0  0  0  0  0  0  0  0  0
   -6.7441    8.2479   -5.5343 C   0  0  0  0  0  0  0  0  0  0  0  0
   -5.5263    8.3210   -6.1831 C   0  0  0  0  0  0  0  0  0  0  0  0
   -5.3730    9.2152   -7.3199 C   0  0  0  0  0  0  0  0  0  0  0  0
   -6.3012    9.5350   -8.3339 C   0  0  0  0  0  0  0  0  0  0  0  0
   -5.6321   10.3809   -9.1234 C   0  0  0  0  0  0  0  0  0  0  0  0
   -4.3651   10.6259   -8.6810 N   0  0  0  0  0  0  0  0  0  0  0  0
   -4.2579    9.8689   -7.5652 N   0  0  0  0  0  0  0  0  0  0  0  0
   -3.2820   11.5017   -9.1681 C   0  0  0  0  0  0  0  0  0  0  0  0
   -3.0352   12.9249   -8.6222 C   0  0  2  0  0  0  0  0  0  0  0  0
   -2.4581   12.8949   -7.1941 C   0  0  0  0  0  0  0  0  0  0  0  0
   -2.1130   14.2739   -6.7861 N   0  3  0  0  0  0  0  0  0  0  0  0
   -1.2461   14.9391   -7.7822 C   0  0  0  0  0  0  0  0  0  0  0  0
   -0.9277   16.3790   -7.3870 C   0  0  0  0  0  0  0  0  0  0  0  0
   -0.3050   16.4251   -5.9978 C   0  0  0  0  0  0  0  0  0  0  0  0
   -1.2031   15.7169   -4.9988 C   0  0  0  0  0  0  0  0  0  0  0  0
   -1.4793   14.2951   -5.4640 C   0  0  0  0  0  0  0  0  0  0  0  0
   -4.2609   13.6691   -8.5963 O   0  0  0  0  0  0  0  0  0  0  0  0
   -6.2651   10.9470  -10.3861 C   0  0  0  0  0  0  0  0  0  0  0  0
   -7.7959   10.7439  -10.4584 C   0  0  0  0  0  0  0  0  0  0  0  0
   -8.2500    9.4451   -9.9049 N   0  0  0  0  0  0  0  0  0  0  0  0
   -7.7319    9.0717   -8.5742 C   0  0  0  0  0  0  0  0  0  0  0  0
   -9.1622    8.6351  -10.4911 C   0  0  0  0  0  0  0  0  0  0  0  0
   -9.1647    7.4181  -10.3569 O   0  0  0  0  0  0  0  0  0  0  0  0
   -8.5191    7.4480   -3.6403 S   0  0  0  0  0  0  0  0  0  0  0  0
   -9.0884    9.1671   -3.5891 C   0  0  0  0  0  0  0  0  0  0  0  0
   -7.9859   10.0772   -3.0061 C   0  0  0  0  0  0  0  0  0  0  0  0
   -8.4741   11.0242   -1.9848 N   0  3  2  0  0  0  0  0  0  0  0  0
   -9.7344   11.6310   -2.4139 C   0  0  0  0  0  0  0  0  0  0  0  0
  -10.2921   12.5448   -1.3272 C   0  0  0  0  0  0  0  0  0  0  0  0
   -9.3059   13.6377   -0.9381 C   0  0  2  0  0  0  0  0  0  0  0  0
   -7.9539   13.0168   -0.6359 C   0  0  0  0  0  0  0  0  0  0  0  0
   -7.4938   12.0830   -1.7473 C   0  0  0  0  0  0  0  0  0  0  0  0
   -5.9540    5.6900   -2.7790 C   0  0  0  0  0  0  0  0  0  0  0  0
   -5.8198    6.3781   -1.5790 F   0  0  0  0  0  0  0  0  0  0  0  0
   -7.1847    5.0440   -2.7508 F   0  0  0  0  0  0  0  0  0  0  0  0
   -4.9793    4.6959   -2.7842 F   0  0  0  0  0  0  0  0  0  0  0  0
   -9.7173   14.1890    0.0450 F   0  0  0  0  0  0  0  0  0  0  0  0
   -9.8176    9.0191  -11.1325 N   0  0  0  0  0  0  0  0  0  0  0  0
  -10.3386    8.4886  -11.6078 C   0  0  0  0  0  0  0  0  0  0  0  0
  -11.1047    7.8590  -10.9209 C   0  0  0  0  0  0  0  0  0  0  0  0
  -11.0789    9.0251  -12.4021 C   0  0  0  0  0  0  0  0  0  0  0  0
   -9.7135    7.7402  -12.3185 C   0  0  0  0  0  0  0  0  0  0  0  0
   -9.1951   14.5602   -1.9738 H   0  0  0  0  0  0  0  0  0  0  0  0
   -2.2381   13.4760   -9.3290 H   0  0  0  0  0  0  0  0  0  0  0  0
   -3.5971    7.5730   -6.1659 H   0  0  0  0  0  0  0  0  0  0  0  0
   -3.8920    6.1560   -4.3162 H   0  0  0  0  0  0  0  0  0  0  0  0
   -7.5099    8.8059   -5.8542 H   0  0  0  0  0  0  0  0  0  0  0  0
   -2.2557   10.8949   -9.0271 H   0  0  0  0  0  0  0  0  0  0  0  0
   -3.4737   11.6018  -10.3479 H   0  0  0  0  0  0  0  0  0  0  0  0
   -3.2400   12.3629   -6.4551 H   0  0  0  0  0  0  0  0  0  0  0  0
   -1.4849   12.1940   -7.2511 H   0  0  0  0  0  0  0  0  0  0  0  0
   -0.2439   14.3011   -7.9562 H   0  0  0  0  0  0  0  0  0  0  0  0
   -1.8489   14.9609   -8.8192 H   0  0  0  0  0  0  0  0  0  0  0  0
   -0.1579   16.8701   -8.1651 H   0  0  0  0  0  0  0  0  0  0  0  0
   -1.9399   17.0230   -7.3741 H   0  0  0  0  0  0  0  0  0  0  0  0
   -0.1761   17.5700   -5.6630 H   0  0  0  0  0  0  0  0  0  0  0  0
    0.7700   15.8919   -6.0172 H   0  0  0  0  0  0  0  0  0  0  0  0
   -2.2421   16.3121   -4.9180 H   0  0  0  0  0  0  0  0  0  0  0  0
   -0.6710   15.7249   -3.9250 H   0  0  0  0  0  0  0  0  0  0  0  0
   -0.4577   13.6640   -5.4441 H   0  0  0  0  0  0  0  0  0  0  0  0
   -2.2312   13.8080   -4.6658 H   0  0  0  0  0  0  0  0  0  0  0  0
   -4.1120   14.6072   -8.2651 H   0  0  0  0  0  0  0  0  0  0  0  0
   -6.0527   12.1221  -10.4688 H   0  0  0  0  0  0  0  0  0  0  0  0
   -5.7721   10.3860  -11.3250 H   0  0  0  0  0  0  0  0  0  0  0  0
   -8.1118   10.9422  -11.5962 H   0  0  0  0  0  0  0  0  0  0  0  0
   -8.3140   11.5921   -9.7849 H   0  0  0  0  0  0  0  0  0  0  0  0
   -8.4471    9.5699   -7.7480 H   0  0  0  0  0  0  0  0  0  0  0  0
   -7.7660    7.8781   -8.4601 H   0  0  0  0  0  0  0  0  0  0  0  0
  -10.0800    9.2620   -2.9210 H   0  0  0  0  0  0  0  0  0  0  0  0
   -9.3421    9.4982   -4.7150 H   0  0  0  0  0  0  0  0  0  0  0  0
   -7.1079    9.4010   -2.5439 H   0  0  0  0  0  0  0  0  0  0  0  0
   -7.5292   10.7102   -3.9190 H   0  0  0  0  0  0  0  0  0  0  0  0
  -10.5091   10.7478   -2.6621 H   0  0  0  0  0  0  0  0  0  0  0  0
   -9.5522   12.2629   -3.4192 H   0  0  0  0  0  0  0  0  0  0  0  0
  -11.2779   13.0981   -1.7303 H   0  0  0  0  0  0  0  0  0  0  0  0
  -10.5780   11.9110   -0.3479 H   0  0  0  0  0  0  0  0  0  0  0  0
   -8.0539   12.4063    0.3930 H   0  0  0  0  0  0  0  0  0  0  0  0
   -7.1287   13.8768   -0.4889 H   0  0  0  0  0  0  0  0  0  0  0  0
   -7.3409   12.6999   -2.7653 H   0  0  0  0  0  0  0  0  0  0  0  0
   -6.4350   11.6082   -1.4360 H   0  0  0  0  0  0  0  0  0  0  0  0
   -2.8878   14.7487   -6.7174 H   0  0  0  0  0  0  0  0  0  0  0  0
   -8.6152   10.5658   -1.2091 H   0  0  0  0  0  0  0  0  0  0  0  0
   -9.9129    9.8878  -11.2188 H   0  0  0  0  0  0  0  0  0  0  0  0
  -12.1836    7.5497  -11.3675 H   0  0  0  0  0  0  0  0  0  0  0  0
  -11.3880    8.4726   -9.9219 H   0  0  0  0  0  0  0  0  0  0  0  0
  -10.8240    6.7530  -10.5306 H   0  0  0  0  0  0  0  0  0  0  0  0
  -11.9390    9.6997  -11.8848 H   0  0  0  0  0  0  0  0  0  0  0  0
  -11.6797    8.3424  -13.2001 H   0  0  0  0  0  0  0  0  0  0  0  0
  -10.5605    9.8456  -13.1239 H   0  0  0  0  0  0  0  0  0  0  0  0
   -8.6026    7.3611  -12.0456 H   0  0  0  0  0  0  0  0  0  0  0  0
   -9.3442    8.2244  -13.3603 H   0  0  0  0  0  0  0  0  0  0  0  0
  -10.2870    6.7351  -12.6643 H   0  0  0  0  0  0  0  0  0  0  0  0
  1  2  2  0  0  0  0
  1  6  1  0  0  0  0
  1 49  1  0  0  0  0
  2  3  1  0  0  0  0
  2 50  1  0  0  0  0
  3  4  2  0  0  0  0
  3 37  1  0  0  0  0
  4  5  1  0  0  0  0
  4 28  1  0  0  0  0
  5  6  2  0  0  0  0
  5 51  1  0  0  0  0
  6  7  1  0  0  0  0
  7  8  1  0  0  0  0
  7 11  2  0  0  0  0
  8  9  2  0  0  0  0
  8 25  1  0  0  0  0
  9 10  1  0  0  0  0
  9 22  1  0  0  0  0
 10 11  1  0  0  0  0
 10 12  1  0  0  0  0
 12 13  1  0  0  0  0
 12 52  1  0  0  0  0
 12 53  1  0  0  0  0
 13 14  1  0  0  0  0
 13 21  1  0  0  0  0
 13 48  1  6  0  0  0
 14 15  1  0  0  0  0
 14 54  1  0  0  0  0
 14 55  1  0  0  0  0
 15 16  1  0  0  0  0
 15 20  1  0  0  0  0
 15 85  1  0  0  0  0
 16 17  1  0  0  0  0
 16 56  1  0  0  0  0
 16 57  1  0  0  0  0
 17 18  1  0  0  0  0
 17 58  1  0  0  0  0
 17 59  1  0  0  0  0
 18 19  1  0  0  0  0
 18 60  1  0  0  0  0
 18 61  1  0  0  0  0
 19 20  1  0  0  0  0
 19 62  1  0  0  0  0
 19 63  1  0  0  0  0
 20 64  1  0  0  0  0
 20 65  1  0  0  0  0
 21 66  1  0  0  0  0
 22 23  1  0  0  0  0
 22 67  1  0  0  0  0
 22 68  1  0  0  0  0
 23 24  1  0  0  0  0
 23 69  1  0  0  0  0
 23 70  1  0  0  0  0
 24 25  1  0  0  0  0
 24 26  1  0  0  0  0
 25 71  1  0  0  0  0
 25 72  1  0  0  0  0
 26 27  2  0  0  0  0
 28 29  1  0  0  0  0
 29 30  1  0  0  0  0
 29 73  1  0  0  0  0
 29 74  1  0  0  0  0
 30 31  1  0  0  0  0
 30 75  1  0  0  0  0
 30 76  1  0  0  0  0
 31 32  1  0  0  0  0
 31 36  1  0  0  0  0
 31 86  1  1  0  0  0
 32 33  1  0  0  0  0
 32 77  1  0  0  0  0
 32 78  1  0  0  0  0
 33 34  1  0  0  0  0
 33 79  1  0  0  0  0
 33 80  1  0  0  0  0
 34 35  1  0  0  0  0
 34 41  1  0  0  0  0
 34 47  1  6  0  0  0
 35 36  1  0  0  0  0
 35 81  1  0  0  0  0
 35 82  1  0  0  0  0
 36 83  1  0  0  0  0
 36 84  1  0  0  0  0
 37 38  1  0  0  0  0
 37 39  1  0  0  0  0
 37 40  1  0  0  0  0
 42 26  1  0  0  0  0
 43 42  1  0  0  0  0
 44 43  1  0  0  0  0
 45 43  1  0  0  0  0
 46 43  1  0  0  0  0
 87 42  1  0  0  0  0
 88 44  1  0  0  0  0
 89 44  1  0  0  0  0
 90 44  1  0  0  0  0
 91 45  1  0  0  0  0
 92 45  1  0  0  0  0
 93 45  1  0  0  0  0
 94 46  1  0  0  0  0
 95 46  1  0  0  0  0
 96 46  1  0  0  0  0
M  CHG  2  15   1  31   1
M  END
$$$$
