@<TRIPOS>MOLECULE
*****
 67 70 0 0 0
SMALL
GASTEIGER

@<TRIPOS>ATOM
      1 C           0.9509    0.0925   -0.1850 C.3     1  UNL1       -0.0560
      2 C           0.3722    0.6213    1.1509 C.3     1  UNL1       -0.0127
      3 C           0.9323    2.0506    1.3760 C.3     1  UNL1       -0.0560
      4 C          -1.1677    0.7603    1.0117 C.3     1  UNL1       -0.0560
      5 C           0.7184   -0.3549    2.2943 C.ar    1  UNL1       -0.0419
      6 C           1.6676   -0.0688    3.2828 C.ar    1  UNL1       -0.0563
      7 C           1.9878   -1.0027    4.2668 C.ar    1  UNL1       -0.0400
      8 C           1.3272   -2.2372    4.3523 C.ar    1  UNL1        0.0379
      9 N           1.6501   -3.2258    5.3807 N.am    1  UNL1       -0.2488
     10 C           1.2561   -4.5499    5.3167 C.2     1  UNL1        0.2870
     11 O           0.9320   -5.1505    6.3219 O.2     1  UNL1       -0.2662
     12 C           1.1637   -5.2350    4.0010 C.ar    1  UNL1        0.1896
     13 C           1.7652   -4.8888    2.8144 C.ar    1  UNL1       -0.0113
     14 C           1.1564   -5.7065    1.8257 C.ar    1  UNL1       -0.0231
     15 C           0.2724   -6.4942    2.5077 C.ar    1  UNL1        0.0928
     16 O           0.3186   -6.3214    3.8704 O.2     1  UNL1       -0.4583
     17 C           2.0717   -2.7172    6.7329 C.3     1  UNL1        0.1338
     18 C           3.5057   -2.1580    6.8407 C.2     1  UNL1        0.2385
     19 O           3.7609   -1.1043    7.3849 O.2     1  UNL1       -0.2734
     20 N           4.5770   -2.8840    6.4371 N.am    1  UNL1       -0.3132
     21 C           4.6326   -4.1983    5.7868 C.3     1  UNL1        0.0156
     22 C           4.9178   -4.0764    4.2771 C.3     1  UNL1       -0.0120
     23 C           6.3005   -3.5025    4.0101 C.ar    1  UNL1       -0.0432
     24 C           6.4741   -2.1218    3.8826 C.ar    1  UNL1       -0.0584
     25 C           7.7476   -1.5867    3.6964 C.ar    1  UNL1       -0.0588
     26 C           8.8554   -2.4293    3.6291 C.ar    1  UNL1       -0.0264
     27 C           8.6829   -3.8072    3.7395 C.ar    1  UNL1        0.1237
     28 F           9.7502   -4.6218    3.6742 F       1  UNL1       -0.2055
     29 C           7.4115   -4.3455    3.9290 C.ar    1  UNL1       -0.0232
     30 C           0.9699   -1.8560    7.3832 C.ar    1  UNL1        0.0002
     31 C          -0.1175   -2.4949    7.9873 C.ar    1  UNL1       -0.0534
     32 C          -1.1181   -1.7367    8.5896 C.ar    1  UNL1       -0.0433
     33 C          -1.0098   -0.3490    8.5834 C.ar    1  UNL1        0.0276
     34 N           0.0174    0.2962    7.9911 N.ar    1  UNL1       -0.2629
     35 C           0.9753   -0.4519    7.3967 C.ar    1  UNL1        0.0330
     36 C           0.2917   -2.4554    3.4312 C.ar    1  UNL1       -0.0400
     37 C           0.0551   -1.5800    2.3793 C.ar    1  UNL1       -0.0563
     38 H           0.6995    0.7625   -1.0115 H       1  UNL1        0.0238
     39 H           0.5546   -0.8973   -0.4229 H       1  UNL1        0.0238
     40 H           2.0398    0.0163   -0.1315 H       1  UNL1        0.0238
     41 H           0.6282    2.7197    0.5670 H       1  UNL1        0.0238
     42 H           0.5603    2.4696    2.3144 H       1  UNL1        0.0238
     43 H           2.0244    2.0498    1.4028 H       1  UNL1        0.0238
     44 H          -1.6334   -0.1738    0.6922 H       1  UNL1        0.0238
     45 H          -1.6116    1.0502    1.9674 H       1  UNL1        0.0238
     46 H          -1.4304    1.5177    0.2700 H       1  UNL1        0.0238
     47 H           2.1892    0.8830    3.3035 H       1  UNL1        0.0621
     48 H           2.7545   -0.7209    4.9749 H       1  UNL1        0.0636
     49 H           2.4669   -4.0878    2.6212 H       1  UNL1        0.0657
     50 H           1.3098   -5.6519    0.7534 H       1  UNL1        0.0649
     51 H          -0.4683   -7.2118    2.1733 H       1  UNL1        0.1029
     52 H           2.1788   -3.5780    7.3959 H       1  UNL1        0.0652
     53 H           5.4758   -2.4430    6.5635 H       1  UNL1        0.1488
     54 H           5.4442   -4.7661    6.2496 H       1  UNL1        0.0465
     55 H           3.7127   -4.7540    5.9602 H       1  UNL1        0.0465
     56 H           4.8300   -5.0614    3.8116 H       1  UNL1        0.0328
     57 H           4.1680   -3.4321    3.8173 H       1  UNL1        0.0328
     58 H           5.6164   -1.4556    3.9460 H       1  UNL1        0.0620
     59 H           7.8775   -0.5105    3.6128 H       1  UNL1        0.0619
     60 H           9.8505   -2.0125    3.4939 H       1  UNL1        0.0646
     61 H           7.2917   -5.4222    4.0252 H       1  UNL1        0.0649
     62 H          -0.1928   -3.5782    7.9929 H       1  UNL1        0.0622
     63 H          -1.9696   -2.2208    9.0613 H       1  UNL1        0.0633
     64 H          -1.7617    0.2801    9.0564 H       1  UNL1        0.0829
     65 H           1.7683    0.1280    6.9331 H       1  UNL1        0.0833
     66 H          -0.3309   -3.3428    3.4794 H       1  UNL1        0.0636
     67 H          -0.6741   -1.8688    1.6284 H       1  UNL1        0.0621
@<TRIPOS>BOND
     1     1     2    1
     2     2     3    1
     3     2     4    1
     4     2     5    1
     5     5     6   ar
     6     6     7   ar
     7     7     8   ar
     8     8     9    1
     9     9    10   am
    10    10    11    2
    11    10    12    1
    12    12    13   ar
    13    13    14   ar
    14    14    15   ar
    15    15    16   ar
    16     9    17    1
    17    17    18    1
    18    18    19    2
    19    18    20   am
    20    20    21    1
    21    21    22    1
    22    22    23    1
    23    23    24   ar
    24    24    25   ar
    25    25    26   ar
    26    26    27   ar
    27    27    28    1
    28    27    29   ar
    29    17    30    1
    30    30    31   ar
    31    31    32   ar
    32    32    33   ar
    33    33    34   ar
    34    34    35   ar
    35     8    36   ar
    36    36    37   ar
    37    37     5   ar
    38    16    12   ar
    39    29    23   ar
    40    35    30   ar
    41     1    38    1
    42     1    39    1
    43     1    40    1
    44     3    41    1
    45     3    42    1
    46     3    43    1
    47     4    44    1
    48     4    45    1
    49     4    46    1
    50     6    47    1
    51     7    48    1
    52    13    49    1
    53    14    50    1
    54    15    51    1
    55    17    52    1
    56    20    53    1
    57    21    54    1
    58    21    55    1
    59    22    56    1
    60    22    57    1
    61    24    58    1
    62    25    59    1
    63    26    60    1
    64    29    61    1
    65    31    62    1
    66    32    63    1
    67    33    64    1
    68    35    65    1
    69    36    66    1
    70    37    67    1
