@<TRIPOS>MOLECULE
*****
 67 70 0 0 0
SMALL
GASTEIGER

@<TRIPOS>ATOM
      1 C           1.1367    0.0672   -0.2496 C.3     1  UNL1       -0.0586
      2 C           0.6752    0.6200   -1.6178 C.3     1  UNL1       -0.0209
      3 C           1.1919   -0.2947   -2.7522 C.3     1  UNL1       -0.0586
      4 C          -0.8524    0.8111   -1.6036 C.ar    1  UNL1       -0.0314
      5 C          -1.6288   -0.3531   -1.5456 C.ar    1  UNL1       -0.0363
      6 C          -2.9752   -0.3679   -1.1484 C.ar    1  UNL1        0.0381
      7 N          -3.7235   -1.6267   -0.9758 N.am    1  UNL1       -0.2488
      8 C          -5.0187   -1.7041   -0.5068 C.2     1  UNL1        0.2870
      9 O          -5.3350   -2.5945    0.2628 O.2     1  UNL1       -0.2662
     10 C          -6.0293   -0.6842   -0.8903 C.ar    1  UNL1        0.1896
     11 C          -5.9890    0.2160   -1.9319 C.ar    1  UNL1       -0.0113
     12 C          -7.0409    1.1370   -1.6784 C.ar    1  UNL1       -0.0231
     13 C          -7.6534    0.6796   -0.5460 C.ar    1  UNL1        0.0928
     14 O          -7.1358   -0.5055   -0.0823 O.2     1  UNL1       -0.4583
     15 C          -2.9609   -2.9311   -0.9556 C.3     1  UNL1        0.1338
     16 C          -2.3043   -3.3301   -2.2924 C.2     1  UNL1        0.2385
     17 O          -1.1153   -3.5624   -2.3852 O.2     1  UNL1       -0.2734
     18 N          -3.0473   -3.5158   -3.4102 N.am    1  UNL1       -0.3132
     19 C          -4.4969   -3.3766   -3.5932 C.3     1  UNL1        0.0156
     20 C          -4.8581   -2.1587   -4.4706 C.3     1  UNL1       -0.0120
     21 C          -4.2968   -2.1780   -5.8919 C.ar    1  UNL1       -0.0432
     22 C          -3.9365   -0.9701   -6.4987 C.ar    1  UNL1       -0.0584
     23 C          -3.4271   -0.9503   -7.7967 C.ar    1  UNL1       -0.0588
     24 C          -3.2718   -2.1402   -8.5033 C.ar    1  UNL1       -0.0264
     25 C          -3.6403   -3.3447   -7.9109 C.ar    1  UNL1        0.1237
     26 F          -3.4983   -4.4945   -8.5925 F       1  UNL1       -0.2055
     27 C          -4.1578   -3.3673   -6.6172 C.ar    1  UNL1       -0.0232
     28 C          -1.9979   -3.1057    0.2404 C.ar    1  UNL1        0.0002
     29 C          -1.6585   -2.0751    1.1300 C.ar    1  UNL1       -0.0534
     30 C          -0.7146   -2.3062    2.1255 C.ar    1  UNL1       -0.0433
     31 C          -0.1559   -3.5745    2.2457 C.ar    1  UNL1        0.0276
     32 N          -0.5069   -4.6013    1.4421 N.ar    1  UNL1       -0.2629
     33 C          -1.4145   -4.3588    0.4683 C.ar    1  UNL1        0.0330
     34 C          -3.4611    0.8580   -0.6749 C.ar    1  UNL1       -0.0397
     35 C          -2.7837    2.0451   -0.9128 C.ar    1  UNL1       -0.0481
     36 C          -1.4925    2.0557   -1.4359 C.ar    1  UNL1        0.0583
     37 C          -0.8941    3.4449   -1.7020 C.3     1  UNL1        0.4177
     38 F          -1.7688    4.2087   -2.3837 F       1  UNL1       -0.1659
     39 F          -0.6352    4.1017   -0.5581 F       1  UNL1       -0.1659
     40 F           0.2201    3.4858   -2.4489 F       1  UNL1       -0.1659
     41 H           0.7923   -0.9586   -0.1000 H       1  UNL1        0.0235
     42 H           0.7392    0.6811    0.5630 H       1  UNL1        0.0235
     43 H           2.2263    0.0744   -0.1757 H       1  UNL1        0.0235
     44 H           1.1906    1.5671   -1.7280 H       1  UNL1        0.0344
     45 H           0.8856   -1.3334   -2.6086 H       1  UNL1        0.0235
     46 H           0.8231    0.0455   -3.7215 H       1  UNL1        0.0235
     47 H           2.2842   -0.2781   -2.7774 H       1  UNL1        0.0235
     48 H          -1.1044   -1.2766   -1.7022 H       1  UNL1        0.0639
     49 H          -5.2396    0.3196   -2.7054 H       1  UNL1        0.0657
     50 H          -7.2501    2.0513   -2.2239 H       1  UNL1        0.0649
     51 H          -8.4510    1.0878    0.0644 H       1  UNL1        0.1029
     52 H          -3.6880   -3.7405   -0.8501 H       1  UNL1        0.0652
     53 H          -2.5375   -3.7812   -4.2399 H       1  UNL1        0.1488
     54 H          -4.8713   -4.2897   -4.0612 H       1  UNL1        0.0465
     55 H          -4.9974   -3.2892   -2.6292 H       1  UNL1        0.0465
     56 H          -5.9457   -2.0685   -4.5208 H       1  UNL1        0.0328
     57 H          -4.4861   -1.2666   -3.9679 H       1  UNL1        0.0328
     58 H          -4.0546   -0.0318   -5.9615 H       1  UNL1        0.0620
     59 H          -3.1502   -0.0057   -8.2587 H       1  UNL1        0.0619
     60 H          -2.8694   -2.1281   -9.5136 H       1  UNL1        0.0646
     61 H          -4.4479   -4.3209   -6.1860 H       1  UNL1        0.0649
     62 H          -2.0964   -1.0873    1.0660 H       1  UNL1        0.0622
     63 H          -0.4141   -1.5040    2.7952 H       1  UNL1        0.0633
     64 H           0.5903   -3.7925    3.0074 H       1  UNL1        0.0829
     65 H          -1.6515   -5.2117   -0.1649 H       1  UNL1        0.0833
     66 H          -4.3888    0.9364   -0.1229 H       1  UNL1        0.0636
     67 H          -3.2639    2.9821   -0.6401 H       1  UNL1        0.0624
@<TRIPOS>BOND
     1     1     2    1
     2     2     3    1
     3     2     4    1
     4     4     5   ar
     5     5     6   ar
     6     6     7    1
     7     7     8   am
     8     8     9    2
     9     8    10    1
    10    10    11   ar
    11    11    12   ar
    12    12    13   ar
    13    13    14   ar
    14     7    15    1
    15    15    16    1
    16    16    17    2
    17    16    18   am
    18    18    19    1
    19    19    20    1
    20    20    21    1
    21    21    22   ar
    22    22    23   ar
    23    23    24   ar
    24    24    25   ar
    25    25    26    1
    26    25    27   ar
    27    15    28    1
    28    28    29   ar
    29    29    30   ar
    30    30    31   ar
    31    31    32   ar
    32    32    33   ar
    33     6    34   ar
    34    34    35   ar
    35    35    36   ar
    36    36    37    1
    37    37    38    1
    38    37    39    1
    39    37    40    1
    40    36     4   ar
    41    14    10   ar
    42    27    21   ar
    43    33    28   ar
    44     1    41    1
    45     1    42    1
    46     1    43    1
    47     2    44    1
    48     3    45    1
    49     3    46    1
    50     3    47    1
    51     5    48    1
    52    11    49    1
    53    12    50    1
    54    13    51    1
    55    15    52    1
    56    18    53    1
    57    19    54    1
    58    19    55    1
    59    20    56    1
    60    20    57    1
    61    22    58    1
    62    23    59    1
    63    24    60    1
    64    27    61    1
    65    29    62    1
    66    30    63    1
    67    31    64    1
    68    33    65    1
    69    34    66    1
    70    35    67    1
