@<TRIPOS>MOLECULE
*****
 68 72 0 0 0
SMALL
GASTEIGER

@<TRIPOS>ATOM
      1 O           3.7841    2.6248    0.2833 O.2     1  UNL1       -0.2734
      2 C           2.7932    1.9673    0.5273 C.2     1  UNL1        0.2385
      3 N           1.6122    2.6308    0.4945 N.am    1  UNL1       -0.3132
      4 C           0.2973    2.0142    0.4475 C.3     1  UNL1        0.0156
      5 C          -0.7283    2.5222    1.4608 C.3     1  UNL1       -0.0120
      6 C          -1.7855    3.5211    1.0384 C.ar    1  UNL1       -0.0432
      7 C          -2.5116    4.1205    2.0670 C.ar    1  UNL1       -0.0584
      8 C          -3.6425    4.8789    1.7897 C.ar    1  UNL1       -0.0588
      9 C          -4.0354    5.0758    0.4692 C.ar    1  UNL1       -0.0264
     10 C          -3.2875    4.5181   -0.5660 C.ar    1  UNL1        0.1237
     11 F          -3.6693    4.7075   -1.8404 F       1  UNL1       -0.2055
     12 C          -2.1704    3.7318   -0.2894 C.ar    1  UNL1       -0.0232
     13 C           2.9327    0.4804    0.9345 C.3     1  UNL1        0.1338
     14 C           2.5154   -0.5796   -0.1311 C.ar    1  UNL1        0.0002
     15 C           3.5388   -1.1934   -0.8690 C.ar    1  UNL1       -0.0534
     16 C           3.2352   -2.1256   -1.8592 C.ar    1  UNL1       -0.0433
     17 C           1.9049   -2.4386   -2.1109 C.ar    1  UNL1        0.0276
     18 N           0.8960   -1.8898   -1.4117 N.ar    1  UNL1       -0.2629
     19 C           1.2044   -0.9928   -0.4511 C.ar    1  UNL1        0.0330
     20 N           2.7595    0.1664    2.4059 N.am    1  UNL1       -0.2488
     21 C           3.7630   -0.3743    3.1810 C.2     1  UNL1        0.2870
     22 O           3.4582   -1.0637    4.1393 O.2     1  UNL1       -0.2662
     23 C           5.1987   -0.2220    2.8153 C.ar    1  UNL1        0.1896
     24 C           5.8162    0.8461    2.2011 C.ar    1  UNL1       -0.0113
     25 C           7.1754    0.4717    2.0353 C.ar    1  UNL1       -0.0231
     26 C           7.2768   -0.7595    2.6170 C.ar    1  UNL1        0.0928
     27 O           6.1035   -1.2005    3.1840 O.2     1  UNL1       -0.4583
     28 C           1.4229    0.1497    2.9613 C.ar    1  UNL1        0.0379
     29 C           0.5285   -0.8652    2.6257 C.ar    1  UNL1       -0.0400
     30 C          -0.7868   -0.8417    3.0815 C.ar    1  UNL1       -0.0565
     31 C          -1.2171    0.1330    3.9891 C.ar    1  UNL1       -0.0442
     32 C          -2.6857    0.2409    4.4410 C.3     1  UNL1       -0.0158
     33 C          -3.4885   -1.0754    4.5414 C.3     1  UNL1       -0.0462
     34 C          -4.9715   -0.6762    4.4304 C.3     1  UNL1       -0.0525
     35 C          -5.0098    0.6881    3.7198 C.3     1  UNL1       -0.0525
     36 C          -3.5474    1.1114    3.5061 C.3     1  UNL1       -0.0462
     37 C          -0.2730    1.0616    4.4463 C.ar    1  UNL1       -0.0565
     38 C           1.0300    1.0772    3.9326 C.ar    1  UNL1       -0.0400
     39 H           1.6469    3.6145    0.2718 H       1  UNL1        0.1488
     40 H          -0.0755    1.9784   -0.5774 H       1  UNL1        0.0465
     41 H           0.4562    1.0157    0.7863 H       1  UNL1        0.0465
     42 H          -1.2844    1.6344    1.7558 H       1  UNL1        0.0328
     43 H          -0.2124    2.8790    2.3524 H       1  UNL1        0.0328
     44 H          -2.2221    3.9507    3.1019 H       1  UNL1        0.0620
     45 H          -4.2268    5.2946    2.6063 H       1  UNL1        0.0619
     46 H          -4.9279    5.6549    0.2499 H       1  UNL1        0.0646
     47 H          -1.6375    3.2677   -1.1139 H       1  UNL1        0.0649
     48 H           3.9994    0.4119    0.7987 H       1  UNL1        0.0652
     49 H           4.5822   -0.9540   -0.6818 H       1  UNL1        0.0622
     50 H           4.0256   -2.6025   -2.4319 H       1  UNL1        0.0633
     51 H           1.6183   -3.1543   -2.8791 H       1  UNL1        0.0829
     52 H           0.3160   -0.6706    0.0682 H       1  UNL1        0.0833
     53 H           5.3841    1.7862    1.8905 H       1  UNL1        0.0657
     54 H           7.9560    1.0464    1.5463 H       1  UNL1        0.0649
     55 H           8.1117   -1.4418    2.7273 H       1  UNL1        0.1029
     56 H           0.8432   -1.6749    1.9766 H       1  UNL1        0.0636
     57 H          -1.4664   -1.5927    2.6963 H       1  UNL1        0.0621
     58 H          -2.7123    0.7056    5.4308 H       1  UNL1        0.0349
     59 H          -3.2697   -1.7488    3.7144 H       1  UNL1        0.0271
     60 H          -3.2830   -1.6015    5.4761 H       1  UNL1        0.0271
     61 H          -5.5345   -1.4259    3.8679 H       1  UNL1        0.0265
     62 H          -5.4161   -0.5867    5.4239 H       1  UNL1        0.0265
     63 H          -5.5321    0.6219    2.7613 H       1  UNL1        0.0265
     64 H          -5.5325    1.4190    4.3418 H       1  UNL1        0.0265
     65 H          -3.4211    2.1704    3.7289 H       1  UNL1        0.0271
     66 H          -3.2805    0.9319    2.4629 H       1  UNL1        0.0271
     67 H          -0.5626    1.8119    5.1790 H       1  UNL1        0.0621
     68 H           1.7342    1.8281    4.2840 H       1  UNL1        0.0636
@<TRIPOS>BOND
     1     1     2    2
     2     2     3   am
     3     3     4    1
     4     4     5    1
     5     5     6    1
     6     6     7   ar
     7     7     8   ar
     8     8     9   ar
     9     9    10   ar
    10    10    11    1
    11    10    12   ar
    12    14    15   ar
    13    15    16   ar
    14    16    17   ar
    15    17    18   ar
    16    18    19   ar
    17    13    20    1
    18    20    21   am
    19    21    22    2
    20    21    23    1
    21    23    24   ar
    22    24    25   ar
    23    25    26   ar
    24    26    27   ar
    25    20    28    1
    26    28    29   ar
    27    29    30   ar
    28    30    31   ar
    29    31    32    1
    30    32    33    1
    31    33    34    1
    32    34    35    1
    33    35    36    1
    34    31    37   ar
    35    37    38   ar
    36    12     6   ar
    37    19    14   ar
    38    27    23   ar
    39    38    28   ar
    40    36    32    1
    41     3    39    1
    42     4    40    1
    43     4    41    1
    44     5    42    1
    45     5    43    1
    46     7    44    1
    47     8    45    1
    48     9    46    1
    49    12    47    1
    50    13    48    1
    51    15    49    1
    52    16    50    1
    53    17    51    1
    54    19    52    1
    55    24    53    1
    56    25    54    1
    57    26    55    1
    58    29    56    1
    59    30    57    1
    60    32    58    1
    61    33    59    1
    62    33    60    1
    63    34    61    1
    64    34    62    1
    65    35    63    1
    66    35    64    1
    67    36    65    1
    68    36    66    1
    69    37    67    1
    70    38    68    1
    71    13    14    1
    72    13     2    1
