@<TRIPOS>MOLECULE
*****
 59 62 0 0 0
SMALL
GASTEIGER

@<TRIPOS>ATOM
      1 C           1.0149    0.1863    0.2913 C.3     1  UNL1        0.0788
      2 O           0.6014   -1.1926    0.1295 O.3     1  UNL1       -0.4951
      3 C           0.9356   -1.9321   -0.9889 C.ar    1  UNL1        0.1202
      4 C           1.9767   -1.5635   -1.8369 C.ar    1  UNL1       -0.0182
      5 C           2.1914   -2.2547   -3.0233 C.ar    1  UNL1       -0.0368
      6 C           1.4158   -3.3696   -3.3817 C.ar    1  UNL1        0.0381
      7 N           1.6050   -4.0567   -4.6618 N.am    1  UNL1       -0.2488
      8 C           0.7032   -4.9560   -5.2006 C.2     1  UNL1        0.2870
      9 O           1.0888   -5.9120   -5.8441 O.2     1  UNL1       -0.2662
     10 C          -0.7550   -4.7834   -4.9802 C.ar    1  UNL1        0.1896
     11 C          -1.4367   -3.6515   -4.6028 C.ar    1  UNL1       -0.0113
     12 C          -2.7707   -4.0745   -4.3583 C.ar    1  UNL1       -0.0231
     13 C          -2.7822   -5.4105   -4.6448 C.ar    1  UNL1        0.0928
     14 O          -1.5854   -5.8786   -5.1299 O.2     1  UNL1       -0.4583
     15 C           2.9930   -4.0814   -5.2444 C.3     1  UNL1        0.1338
     16 C           3.5059   -2.7592   -5.8526 C.2     1  UNL1        0.2385
     17 O           4.6067   -2.3085   -5.6152 O.2     1  UNL1       -0.2734
     18 N           2.7692   -2.0524   -6.7436 N.am    1  UNL1       -0.3132
     19 C           1.4934   -2.3755   -7.3967 C.3     1  UNL1        0.0156
     20 C           0.3359   -1.4570   -6.9426 C.3     1  UNL1       -0.0120
     21 C           0.4624    0.0390   -7.2499 C.ar    1  UNL1       -0.0432
     22 C          -0.5573    0.8890   -6.8082 C.ar    1  UNL1       -0.0584
     23 C          -0.4824    2.2659   -7.0172 C.ar    1  UNL1       -0.0588
     24 C           0.6197    2.8134   -7.6680 C.ar    1  UNL1       -0.0264
     25 C           1.6312    1.9755   -8.1268 C.ar    1  UNL1        0.1237
     26 F           2.6970    2.4997   -8.7562 F       1  UNL1       -0.2055
     27 C           1.5517    0.5977   -7.9335 C.ar    1  UNL1       -0.0232
     28 C           3.9699   -4.8261   -4.3105 C.ar    1  UNL1        0.0002
     29 C           4.8971   -4.2007   -3.4631 C.ar    1  UNL1       -0.0534
     30 C           5.7361   -4.9782   -2.6688 C.ar    1  UNL1       -0.0433
     31 C           5.6104   -6.3638   -2.7046 C.ar    1  UNL1        0.0276
     32 N           4.7096   -6.9905   -3.4898 N.ar    1  UNL1       -0.2629
     33 C           3.9172   -6.2249   -4.2738 C.ar    1  UNL1        0.0330
     34 C           0.4912   -3.8237   -2.4226 C.ar    1  UNL1       -0.0368
     35 C           0.2085   -3.0812   -1.2774 C.ar    1  UNL1       -0.0182
     36 H           0.5487    0.5968    1.1903 H       1  UNL1        0.0660
     37 H           0.6971    0.7658   -0.5808 H       1  UNL1        0.0660
     38 H           2.1025    0.2334    0.3936 H       1  UNL1        0.0660
     39 H           2.6192   -0.7206   -1.6003 H       1  UNL1        0.0655
     40 H           2.9896   -1.8863   -3.6478 H       1  UNL1        0.0637
     41 H          -1.0482   -2.6560   -4.4284 H       1  UNL1        0.0657
     42 H          -3.5830   -3.4716   -3.9674 H       1  UNL1        0.0649
     43 H          -3.5515   -6.1685   -4.5493 H       1  UNL1        0.1029
     44 H           2.9679   -4.6810   -6.1565 H       1  UNL1        0.0652
     45 H           3.1898   -1.1924   -7.0616 H       1  UNL1        0.1488
     46 H           1.6277   -2.2633   -8.4759 H       1  UNL1        0.0465
     47 H           1.2292   -3.4169   -7.2161 H       1  UNL1        0.0465
     48 H          -0.5877   -1.8245   -7.3974 H       1  UNL1        0.0328
     49 H           0.2203   -1.5661   -5.8645 H       1  UNL1        0.0328
     50 H          -1.4209    0.4780   -6.2900 H       1  UNL1        0.0620
     51 H          -1.2809    2.9148   -6.6655 H       1  UNL1        0.0619
     52 H           0.6888    3.8881   -7.8196 H       1  UNL1        0.0646
     53 H           2.3559   -0.0213   -8.3178 H       1  UNL1        0.0649
     54 H           4.9897   -3.1216   -3.4073 H       1  UNL1        0.0622
     55 H           6.4778   -4.5099   -2.0264 H       1  UNL1        0.0633
     56 H           6.2385   -7.0058   -2.0899 H       1  UNL1        0.0829
     57 H           3.2099   -6.7790   -4.8855 H       1  UNL1        0.0833
     58 H          -0.0739   -4.7385   -2.5732 H       1  UNL1        0.0637
     59 H          -0.5921   -3.3959   -0.6116 H       1  UNL1        0.0655
@<TRIPOS>BOND
     1     1     2    1
     2     2     3    1
     3     3     4   ar
     4     4     5   ar
     5     5     6   ar
     6     6     7    1
     7     7     8   am
     8     8     9    2
     9     8    10    1
    10    10    11   ar
    11    11    12   ar
    12    12    13   ar
    13    13    14   ar
    14     7    15    1
    15    15    16    1
    16    16    17    2
    17    16    18   am
    18    18    19    1
    19    19    20    1
    20    20    21    1
    21    21    22   ar
    22    22    23   ar
    23    23    24   ar
    24    24    25   ar
    25    25    26    1
    26    25    27   ar
    27    15    28    1
    28    28    29   ar
    29    29    30   ar
    30    30    31   ar
    31    31    32   ar
    32    32    33   ar
    33     6    34   ar
    34    34    35   ar
    35    35     3   ar
    36    14    10   ar
    37    27    21   ar
    38    33    28   ar
    39     1    36    1
    40     1    37    1
    41     1    38    1
    42     4    39    1
    43     5    40    1
    44    11    41    1
    45    12    42    1
    46    13    43    1
    47    15    44    1
    48    18    45    1
    49    19    46    1
    50    19    47    1
    51    20    48    1
    52    20    49    1
    53    22    50    1
    54    23    51    1
    55    24    52    1
    56    27    53    1
    57    29    54    1
    58    30    55    1
    59    31    56    1
    60    33    57    1
    61    34    58    1
    62    35    59    1
