@<TRIPOS>MOLECULE
*****
 65 69 0 0 0
SMALL
GASTEIGER

@<TRIPOS>ATOM
      1 C          -1.2912   -5.4694  -11.2116 C.3     1  UNL1       -0.0555
      2 C          -2.3617   -4.4023  -11.0037 C.3     1  UNL1       -0.0070
      3 C          -2.1957   -3.8802   -9.6094 C.ar    1  UNL1       -0.0413
      4 C          -3.0447   -4.2906   -8.5849 C.ar    1  UNL1       -0.0563
      5 C          -2.8692   -3.8210   -7.2835 C.ar    1  UNL1       -0.0400
      6 C          -1.7826   -2.9934   -6.9375 C.ar    1  UNL1        0.0379
      7 N          -1.5673   -2.5215   -5.5655 N.am    1  UNL1       -0.2488
      8 C          -0.9393   -1.3374   -5.2043 C.2     1  UNL1        0.2870
      9 O          -0.5010   -1.1805   -4.0852 O.2     1  UNL1       -0.2662
     10 C          -0.6568   -0.2755   -6.1970 C.ar    1  UNL1        0.1896
     11 C          -1.3977    0.0979   -7.2907 C.ar    1  UNL1       -0.0113
     12 C          -0.6132    1.0812   -7.9562 C.ar    1  UNL1       -0.0231
     13 C           0.5073    1.2322   -7.1877 C.ar    1  UNL1        0.0928
     14 O           0.4874    0.4859   -6.0372 O.2     1  UNL1       -0.4583
     15 C          -1.9565   -3.4573   -4.4440 C.3     1  UNL1        0.1338
     16 C          -2.7579   -2.7483   -3.3302 C.2     1  UNL1        0.2385
     17 O          -3.3842   -1.7400   -3.5923 O.2     1  UNL1       -0.2734
     18 N          -3.0561   -3.3117   -2.1306 N.am    1  UNL1       -0.3132
     19 C          -2.6052   -4.5551   -1.4863 C.3     1  UNL1        0.0156
     20 C          -1.4588   -4.3320   -0.4712 C.3     1  UNL1       -0.0120
     21 C          -1.8399   -3.7012    0.8690 C.ar    1  UNL1       -0.0432
     22 C          -0.9057   -3.7457    1.9089 C.ar    1  UNL1       -0.0584
     23 C          -1.1870   -3.1679    3.1463 C.ar    1  UNL1       -0.0588
     24 C          -2.4079   -2.5331    3.3579 C.ar    1  UNL1       -0.0264
     25 C          -3.3436   -2.4834    2.3293 C.ar    1  UNL1        0.1237
     26 F          -4.5238   -1.8715    2.5285 F       1  UNL1       -0.2055
     27 C          -3.0670   -3.0627    1.0933 C.ar    1  UNL1       -0.0232
     28 C          -0.8205   -4.4025   -4.0136 C.ar    1  UNL1        0.0002
     29 C           0.3194   -3.9973   -3.3085 C.ar    1  UNL1       -0.0534
     30 C           1.2296   -4.9520   -2.8659 C.ar    1  UNL1       -0.0433
     31 C           0.9859   -6.2952   -3.1345 C.ar    1  UNL1        0.0276
     32 N          -0.0876   -6.7116   -3.8401 N.ar    1  UNL1       -0.2629
     33 C          -0.9542   -5.7714   -4.2812 C.ar    1  UNL1        0.0330
     34 C          -0.8793   -2.6837   -7.9689 C.ar    1  UNL1       -0.0400
     35 C          -1.1208   -3.0549   -9.2904 C.ar    1  UNL1       -0.0563
     36 C          -3.7070   -4.5468  -11.6647 C.3     1  UNL1       -0.0428
     37 C          -2.7419   -3.5120  -12.1558 C.3     1  UNL1       -0.0428
     38 H          -0.8549   -5.8032  -10.2660 H       1  UNL1        0.0238
     39 H          -0.4823   -5.0770  -11.8320 H       1  UNL1        0.0238
     40 H          -1.7072   -6.3475  -11.7092 H       1  UNL1        0.0238
     41 H          -3.8564   -4.9825   -8.7994 H       1  UNL1        0.0621
     42 H          -3.6043   -4.1393   -6.5533 H       1  UNL1        0.0636
     43 H          -2.3541   -0.2936   -7.6198 H       1  UNL1        0.0657
     44 H          -0.8417    1.5744   -8.8942 H       1  UNL1        0.0649
     45 H           1.4048    1.8277   -7.3129 H       1  UNL1        0.1029
     46 H          -2.7305   -4.1242   -4.8069 H       1  UNL1        0.0652
     47 H          -3.6726   -2.7602   -1.5538 H       1  UNL1        0.1488
     48 H          -3.4563   -4.9895   -0.9554 H       1  UNL1        0.0465
     49 H          -2.3093   -5.2876   -2.2316 H       1  UNL1        0.0465
     50 H          -0.9972   -5.3028   -0.2734 H       1  UNL1        0.0328
     51 H          -0.6867   -3.7097   -0.9235 H       1  UNL1        0.0328
     52 H           0.0556   -4.2316    1.7558 H       1  UNL1        0.0620
     53 H          -0.4516   -3.2091    3.9460 H       1  UNL1        0.0619
     54 H          -2.6293   -2.0779    4.3201 H       1  UNL1        0.0646
     55 H          -3.8230   -3.0023    0.3181 H       1  UNL1        0.0649
     56 H           0.4976   -2.9662   -3.0395 H       1  UNL1        0.0622
     57 H           2.1041   -4.6523   -2.2935 H       1  UNL1        0.0633
     58 H           1.6561   -7.0731   -2.7738 H       1  UNL1        0.0829
     59 H          -1.8206   -6.1591   -4.8136 H       1  UNL1        0.0833
     60 H           0.0205   -2.1109   -7.7681 H       1  UNL1        0.0636
     61 H          -0.4406   -2.7278  -10.0737 H       1  UNL1        0.0621
     62 H          -3.8800   -5.4137  -12.2970 H       1  UNL1        0.0274
     63 H          -4.5883   -4.1931  -11.1376 H       1  UNL1        0.0274
     64 H          -2.9782   -2.4717  -11.9518 H       1  UNL1        0.0274
     65 H          -2.2692   -3.6864  -13.1189 H       1  UNL1        0.0274
@<TRIPOS>BOND
     1     1     2    1
     2     2     3    1
     3     3     4   ar
     4     4     5   ar
     5     5     6   ar
     6     6     7    1
     7     7     8   am
     8     8     9    2
     9     8    10    1
    10    10    11   ar
    11    11    12   ar
    12    12    13   ar
    13    13    14   ar
    14    16    17    2
    15    16    18   am
    16    18    19    1
    17    19    20    1
    18    20    21    1
    19    21    22   ar
    20    22    23   ar
    21    23    24   ar
    22    24    25   ar
    23    25    26    1
    24    25    27   ar
    25    15    28    1
    26    28    29   ar
    27    29    30   ar
    28    30    31   ar
    29    31    32   ar
    30    32    33   ar
    31     6    34   ar
    32    34    35   ar
    33     2    36    1
    34    36    37    1
    35    37     2    1
    36    35     3   ar
    37    14    10   ar
    38    27    21   ar
    39    33    28   ar
    40     1    38    1
    41     1    39    1
    42     1    40    1
    43     4    41    1
    44     5    42    1
    45    11    43    1
    46    12    44    1
    47    13    45    1
    48    15    46    1
    49    18    47    1
    50    19    48    1
    51    19    49    1
    52    20    50    1
    53    20    51    1
    54    22    52    1
    55    23    53    1
    56    24    54    1
    57    27    55    1
    58    29    56    1
    59    30    57    1
    60    31    58    1
    61    33    59    1
    62    34    60    1
    63    35    61    1
    64    36    62    1
    65    36    63    1
    66    37    64    1
    67    37    65    1
    68    15    16    1
    69    15     7    1
