@<TRIPOS>MOLECULE
*****
 64 67 0 0 0
SMALL
GASTEIGER

@<TRIPOS>ATOM
      1 C          -7.7976   -7.4530    0.5839 C.3     1  UNL1       -0.0587
      2 C          -6.7060   -6.8570   -0.3338 C.3     1  UNL1       -0.0215
      3 C          -6.8959   -7.4074   -1.7661 C.3     1  UNL1       -0.0587
      4 C          -6.6390   -5.3237   -0.3315 C.ar    1  UNL1       -0.0447
      5 C          -7.5275   -4.5210    0.3977 C.ar    1  UNL1       -0.0566
      6 C          -7.4508   -3.1301    0.3336 C.ar    1  UNL1       -0.0400
      7 C          -6.4516   -2.5097   -0.4181 C.ar    1  UNL1        0.0379
      8 N          -6.3168   -1.0736   -0.3946 N.am    1  UNL1       -0.2488
      9 C          -6.3851   -0.2756   -1.5231 C.2     1  UNL1        0.2870
     10 O          -6.3093    0.9359   -1.4379 O.2     1  UNL1       -0.2662
     11 C          -6.2031   -0.9067   -2.8540 C.ar    1  UNL1        0.1896
     12 C          -6.8041   -2.0400   -3.3500 C.ar    1  UNL1       -0.0113
     13 C          -6.1010   -2.3481   -4.5467 C.ar    1  UNL1       -0.0231
     14 C          -5.1775   -1.3506   -4.6876 C.ar    1  UNL1        0.0928
     15 O          -5.2885   -0.3644   -3.7381 O.2     1  UNL1       -0.4583
     16 C          -6.0612   -0.4178    0.9487 C.3     1  UNL1        0.1338
     17 C          -5.0007    0.6892    0.9437 C.2     1  UNL1        0.2385
     18 O          -5.2732    1.8116    1.3181 O.2     1  UNL1       -0.2734
     19 N          -3.7045    0.3884    0.6941 N.am    1  UNL1       -0.3132
     20 C          -3.1681   -0.8559    0.1285 C.3     1  UNL1        0.0156
     21 C          -2.8177   -0.6926   -1.3600 C.3     1  UNL1       -0.0120
     22 C          -1.4735   -0.0461   -1.6544 C.ar    1  UNL1       -0.0432
     23 C          -0.9803   -0.1301   -2.9577 C.ar    1  UNL1       -0.0584
     24 C           0.2501    0.4340   -3.2855 C.ar    1  UNL1       -0.0588
     25 C           0.9972    1.0904   -2.3102 C.ar    1  UNL1       -0.0264
     26 C           0.5068    1.1835   -1.0109 C.ar    1  UNL1        0.1237
     27 F           1.2246    1.8148   -0.0661 F       1  UNL1       -0.2055
     28 C          -0.7226    0.6228   -0.6802 C.ar    1  UNL1       -0.0232
     29 C          -5.7713   -1.2269    2.2377 C.ar    1  UNL1        0.0002
     30 C          -5.9641   -0.5675    3.4577 C.ar    1  UNL1       -0.0534
     31 C          -5.5902   -1.1803    4.6505 C.ar    1  UNL1       -0.0433
     32 C          -5.0482   -2.4608    4.6093 C.ar    1  UNL1        0.0276
     33 N          -4.8377   -3.1199    3.4519 N.ar    1  UNL1       -0.2629
     34 C          -5.1768   -2.4995    2.3001 C.ar    1  UNL1        0.0330
     35 C          -5.5297   -3.3119   -1.0980 C.ar    1  UNL1       -0.0400
     36 C          -5.6404   -4.6974   -1.0790 C.ar    1  UNL1       -0.0566
     37 H          -8.7893   -7.0998    0.2907 H       1  UNL1        0.0235
     38 H          -7.6178   -7.1760    1.6253 H       1  UNL1        0.0235
     39 H          -7.7976   -8.5438    0.5251 H       1  UNL1        0.0235
     40 H          -5.7458   -7.2286    0.0342 H       1  UNL1        0.0343
     41 H          -7.7832   -6.9733   -2.2324 H       1  UNL1        0.0235
     42 H          -6.0312   -7.1774   -2.3922 H       1  UNL1        0.0235
     43 H          -7.0095   -8.4940   -1.7529 H       1  UNL1        0.0235
     44 H          -8.2879   -4.9592    1.0366 H       1  UNL1        0.0621
     45 H          -8.1454   -2.5316    0.9188 H       1  UNL1        0.0636
     46 H          -7.5827   -2.6405   -2.8937 H       1  UNL1        0.0657
     47 H          -6.2298   -3.2266   -5.1699 H       1  UNL1        0.0649
     48 H          -4.3752   -1.1965   -5.4007 H       1  UNL1        0.1029
     49 H          -6.9923    0.1242    1.1421 H       1  UNL1        0.0652
     50 H          -3.0485    1.1507    0.7654 H       1  UNL1        0.1488
     51 H          -2.2887   -1.1681    0.6968 H       1  UNL1        0.0465
     52 H          -3.8976   -1.6520    0.2149 H       1  UNL1        0.0465
     53 H          -2.8284   -1.6800   -1.8252 H       1  UNL1        0.0328
     54 H          -3.5966   -0.1053   -1.8464 H       1  UNL1        0.0328
     55 H          -1.5598   -0.6391   -3.7254 H       1  UNL1        0.0620
     56 H           0.6255    0.3611   -4.3026 H       1  UNL1        0.0619
     57 H           1.9582    1.5299   -2.5621 H       1  UNL1        0.0646
     58 H          -1.0758    0.7156    0.3425 H       1  UNL1        0.0649
     59 H          -6.3578    0.4462    3.4805 H       1  UNL1        0.0622
     60 H          -5.7029   -0.6602    5.5984 H       1  UNL1        0.0633
     61 H          -4.7436   -2.9781    5.5170 H       1  UNL1        0.0829
     62 H          -4.9153   -3.0693    1.4181 H       1  UNL1        0.0833
     63 H          -4.7311   -2.8620   -1.6784 H       1  UNL1        0.0636
     64 H          -4.9295   -5.2879   -1.6513 H       1  UNL1        0.0621
@<TRIPOS>BOND
     1     1     2    1
     2     2     3    1
     3     2     4    1
     4     4     5   ar
     5     5     6   ar
     6     6     7   ar
     7     7     8    1
     8     8     9   am
     9     9    10    2
    10     9    11    1
    11    11    12   ar
    12    12    13   ar
    13    13    14   ar
    14    14    15   ar
    15    17    18    2
    16    17    19   am
    17    19    20    1
    18    20    21    1
    19    21    22    1
    20    22    23   ar
    21    23    24   ar
    22    24    25   ar
    23    25    26   ar
    24    26    27    1
    25    26    28   ar
    26    16    29    1
    27    29    30   ar
    28    30    31   ar
    29    31    32   ar
    30    32    33   ar
    31    33    34   ar
    32     7    35   ar
    33    35    36   ar
    34    36     4   ar
    35    15    11   ar
    36    28    22   ar
    37    34    29   ar
    38     1    37    1
    39     1    38    1
    40     1    39    1
    41     2    40    1
    42     3    41    1
    43     3    42    1
    44     3    43    1
    45     5    44    1
    46     6    45    1
    47    12    46    1
    48    13    47    1
    49    14    48    1
    50    16    49    1
    51    19    50    1
    52    20    51    1
    53    20    52    1
    54    21    53    1
    55    21    54    1
    56    23    55    1
    57    24    56    1
    58    25    57    1
    59    28    58    1
    60    30    59    1
    61    31    60    1
    62    32    61    1
    63    34    62    1
    64    35    63    1
    65    36    64    1
    66    16    17    1
    67    16     8    1
