@<TRIPOS>MOLECULE
*****
 55 58 0 0 0
SMALL
GASTEIGER

@<TRIPOS>ATOM
      1 O           1.2636    0.7921   -0.0035 O.2     1  UNL1       -0.2734
      2 C           2.3886    0.3363    0.0255 C.2     1  UNL1        0.2385
      3 N           3.1419    0.4414   -1.1011 N.am    1  UNL1       -0.3132
      4 C           4.6111    0.3934   -1.2411 C.3     1  UNL1        0.0156
      5 C           5.0822   -0.4090   -2.4670 C.3     1  UNL1       -0.0120
      6 C           4.5972    0.1347   -3.8043 C.ar    1  UNL1       -0.0445
      7 C           4.7311    1.4896   -4.1249 C.ar    1  UNL1       -0.0584
      8 C           4.3108    1.9646   -5.3661 C.ar    1  UNL1       -0.0601
      9 C           3.7672    1.0876   -6.3018 C.ar    1  UNL1       -0.0434
     10 C           3.6430   -0.2649   -5.9921 C.ar    1  UNL1        0.0412
     11 CL          2.9881   -1.3612   -7.1587 Cl      1  UNL1       -0.0835
     12 C           4.0542   -0.7399   -4.7482 C.ar    1  UNL1       -0.0402
     13 C           2.9686   -0.2838    1.3028 C.3     1  UNL1        0.1338
     14 C           2.6870    0.5847    2.5342 C.ar    1  UNL1        0.0002
     15 C           2.4180    0.0634    3.8038 C.ar    1  UNL1       -0.0534
     16 C           2.2471    0.9322    4.8777 C.ar    1  UNL1       -0.0433
     17 C           2.3861    2.3018    4.6688 C.ar    1  UNL1        0.0276
     18 N           2.6861    2.8273    3.4623 N.ar    1  UNL1       -0.2629
     19 C           2.8303    1.9738    2.4248 C.ar    1  UNL1        0.0330
     20 N           2.7133   -1.7613    1.4289 N.am    1  UNL1       -0.2488
     21 C           3.6350   -2.7204    1.0855 C.2     1  UNL1        0.2870
     22 O           3.2399   -3.8160    0.7297 O.2     1  UNL1       -0.2662
     23 C           5.0917   -2.4157    1.0843 C.ar    1  UNL1        0.1896
     24 C           5.7758   -1.4890    1.8413 C.ar    1  UNL1       -0.0113
     25 C           7.1255   -1.5502    1.4044 C.ar    1  UNL1       -0.0231
     26 C           7.1545   -2.5514    0.4760 C.ar    1  UNL1        0.0928
     27 O           5.9390   -3.1660    0.2902 O.2     1  UNL1       -0.4583
     28 C           1.3562   -2.1853    1.7148 C.ar    1  UNL1        0.0379
     29 C           0.2992   -1.9461    0.8287 C.ar    1  UNL1       -0.0388
     30 C          -1.0063   -2.2986    1.1660 C.ar    1  UNL1       -0.0416
     31 C          -1.2630   -2.9519    2.3679 C.ar    1  UNL1        0.0411
     32 CL         -2.8861   -3.3670    2.7994 Cl      1  UNL1       -0.0835
     33 C          -0.2085   -3.2878    3.2120 C.ar    1  UNL1       -0.0416
     34 C           1.0936   -2.9162    2.8803 C.ar    1  UNL1       -0.0388
     35 H           2.6680    0.8364   -1.9002 H       1  UNL1        0.1488
     36 H           4.9718    1.4222   -1.3207 H       1  UNL1        0.0465
     37 H           5.0973   -0.0492   -0.3783 H       1  UNL1        0.0465
     38 H           6.1746   -0.4228   -2.4726 H       1  UNL1        0.0328
     39 H           4.7599   -1.4462   -2.3434 H       1  UNL1        0.0328
     40 H           5.1693    2.1850   -3.4136 H       1  UNL1        0.0620
     41 H           4.4141    3.0197   -5.6073 H       1  UNL1        0.0618
     42 H           3.4473    1.4581   -7.2726 H       1  UNL1        0.0632
     43 H           3.9600   -1.7993   -4.5203 H       1  UNL1        0.0635
     44 H           4.0173   -0.1295    1.1720 H       1  UNL1        0.0652
     45 H           2.3618   -1.0015    3.9817 H       1  UNL1        0.0622
     46 H           2.0233    0.5458    5.8688 H       1  UNL1        0.0633
     47 H           2.2742    3.0129    5.4846 H       1  UNL1        0.0829
     48 H           3.0915    2.4422    1.4774 H       1  UNL1        0.0833
     49 H           5.3888   -0.8127    2.5958 H       1  UNL1        0.0657
     50 H           7.9475   -0.9244    1.7364 H       1  UNL1        0.0649
     51 H           7.9570   -2.9551   -0.1308 H       1  UNL1        0.1029
     52 H           0.4751   -1.4888   -0.1381 H       1  UNL1        0.0637
     53 H          -1.8229   -2.0636    0.4875 H       1  UNL1        0.0633
     54 H          -0.4005   -3.8320    4.1336 H       1  UNL1        0.0633
     55 H           1.9066   -3.1897    3.5482 H       1  UNL1        0.0637
@<TRIPOS>BOND
     1     1     2    2
     2     2     3   am
     3     3     4    1
     4     4     5    1
     5     5     6    1
     6     6     7   ar
     7     7     8   ar
     8     8     9   ar
     9     9    10   ar
    10    10    11    1
    11    10    12   ar
    12     2    13    1
    13    13    14    1
    14    14    15   ar
    15    15    16   ar
    16    16    17   ar
    17    17    18   ar
    18    18    19   ar
    19    13    20    1
    20    20    21   am
    21    21    22    2
    22    21    23    1
    23    23    24   ar
    24    24    25   ar
    25    25    26   ar
    26    26    27   ar
    27    20    28    1
    28    28    29   ar
    29    29    30   ar
    30    30    31   ar
    31    31    32    1
    32    31    33   ar
    33    33    34   ar
    34    12     6   ar
    35    19    14   ar
    36    27    23   ar
    37    34    28   ar
    38     3    35    1
    39     4    36    1
    40     4    37    1
    41     5    38    1
    42     5    39    1
    43     7    40    1
    44     8    41    1
    45     9    42    1
    46    12    43    1
    47    13    44    1
    48    15    45    1
    49    16    46    1
    50    17    47    1
    51    19    48    1
    52    24    49    1
    53    25    50    1
    54    26    51    1
    55    29    52    1
    56    30    53    1
    57    33    54    1
    58    34    55    1
