# created with PyMOL 2.4.0
@<TRIPOS>MOLECULE
lig_ejm_31
29 30 1                 
SMALL
USER_CHARGES
@<TRIPOS>ATOM
1	 H01	-6.039	30.479	-31.083	 H	1	UNK0	0.000	
2	   C	-1.960	21.550	-27.330	C.2	1	UNK0	0.000	
3	   C	-1.290	22.410	-28.200	C.2	1	UNK0	0.000	
4	   C	-1.960	22.950	-29.290	C.2	1	UNK0	0.000	
5	   C	-3.300	22.620	-29.540	C.2	1	UNK0	0.000	
6	   C	-3.970	21.760	-28.650	C.2	1	UNK0	0.000	
7	   C	-3.290	21.230	-27.560	C.2	1	UNK0	0.000	
8	  Cl	-5.640	21.350	-28.920	Cl	1	UNK0	0.000	
9	   C	-4.040	23.150	-30.710	C.2	1	UNK0	0.000	
10	   O	-4.230	22.420	-31.670	O.2	1	UNK0	0.000	
11	   N	-4.510	24.410	-30.650	N.pl3	1	UNK0	0.000	
12	   C	-5.290	25.110	-31.580	C.2	1	UNK0	0.000	
13	   C	-5.960	24.550	-32.680	C.2	1	UNK0	0.000	
14	   C	-6.780	25.360	-33.460	C.2	1	UNK0	0.000	
15	   N	-6.920	26.650	-33.180	N.2	1	UNK0	0.000	
16	   C	-6.300	27.230	-32.160	C.2	1	UNK0	0.000	
17	   C	-5.510	26.460	-31.310	C.2	1	UNK0	0.000	
18	   N	-6.540	28.580	-31.880	N.pl3	1	UNK0	0.000	
19	   C	-5.710	29.450	-31.230	C.2	1	UNK0	0.000	
20	   O	-4.620	29.120	-30.810	O.2	1	UNK0	0.000	
21	  Cl	-1.110	24.050	-30.330	Cl	1	UNK0	0.000	
22	   H	-1.440	21.130	-26.480	 H	1	UNK0	0.000	
23	   H	-0.260	22.660	-28.020	 H	1	UNK0	0.000	
24	   H	-3.810	20.560	-26.890	 H	1	UNK0	0.000	
25	   H	-4.320	24.980	-29.840	 H	1	UNK0	0.000	
26	   H	-5.840	23.500	-32.910	 H	1	UNK0	0.000	
27	   H	-7.310	24.940	-34.300	 H	1	UNK0	0.000	
28	   H	-5.060	26.910	-30.430	 H	1	UNK0	0.000	
29	   H	-7.400	29.010	-32.180	 H	1	UNK0	0.000	
@<TRIPOS>BOND
1 2 3 2
2 2 7 1
3 2 22 1
4 3 4 1
5 3 23 1
6 4 5 2
7 4 21 1
8 5 6 1
9 5 9 1
10 6 7 2
11 6 8 1
12 7 24 1
13 9 10 2
14 9 11 1
15 11 12 1
16 11 25 1
17 12 13 1
18 12 17 2
19 13 14 2
20 13 26 1
21 14 15 1
22 14 27 1
23 15 16 2
24 16 17 1
25 16 18 1
26 17 28 1
27 18 19 1
28 18 29 1
29 1 19 1
30 19 20 2
@<TRIPOS>SUBSTRUCTURE
1	UNK0	1	GROUP	1 ****	UNK
