@<TRIPOS>MOLECULE
lig_ejm_55
 33 34 0 0 0
SMALL
GASTEIGER

@<TRIPOS>ATOM
      1 C          -1.9600   21.5500  -27.3300 C.ar    1  LIG1       -0.0590
      2 C          -1.2900   22.4100  -28.2000 C.ar    1  LIG1       -0.0426
      3 C          -1.9600   22.9500  -29.2900 C.ar    1  LIG1        0.0545
      4 C          -3.3000   22.6200  -29.5400 C.ar    1  LIG1        0.0735
      5 C          -3.9700   21.7600  -28.6500 C.ar    1  LIG1        0.0545
      6 C          -3.2900   21.2300  -27.5600 C.ar    1  LIG1       -0.0426
      7 CL         -5.6400   21.3500  -28.9200 Cl      1  LIG1       -0.0827
      8 C          -4.0400   23.1500  -30.7100 C.2     1  LIG1        0.2511
      9 O          -4.2300   22.4200  -31.6700 O.2     1  LIG1       -0.2698
     10 N          -4.5100   24.4100  -30.6500 N.am    1  LIG1       -0.2813
     11 C          -5.2900   25.1100  -31.5800 C.ar    1  LIG1        0.0384
     12 C          -5.9600   24.5500  -32.6800 C.ar    1  LIG1       -0.0222
     13 C          -6.7800   25.3600  -33.4600 C.ar    1  LIG1        0.0314
     14 N          -6.9200   26.6500  -33.1800 N.ar    1  LIG1       -0.2399
     15 C          -6.3000   27.2300  -32.1600 C.ar    1  LIG1        0.1291
     16 C          -5.5100   26.4600  -31.3100 C.ar    1  LIG1       -0.0002
     17 N          -6.5400   28.5800  -31.8800 N.am    1  LIG1       -0.2355
     18 C          -5.7100   29.4500  -31.2300 C.2     1  LIG1        0.4054
     19 O          -4.6200   29.1200  -30.8100 O.2     1  LIG1       -0.2261
     20 CL         -1.1100   24.0500  -30.3300 Cl      1  LIG1       -0.0827
     21 H          -1.4400   21.1300  -26.4800 H       1  LIG1        0.0618
     22 H          -0.2600   22.6600  -28.0200 H       1  LIG1        0.0632
     23 H          -3.8100   20.5600  -26.8900 H       1  LIG1        0.0632
     24 H          -4.3200   24.9800  -29.8400 H       1  LIG1        0.1551
     25 H          -5.8400   23.5000  -32.9100 H       1  LIG1        0.0651
     26 H          -7.3100   24.9400  -34.3000 H       1  LIG1        0.0831
     27 H          -5.0600   26.9100  -30.4300 H       1  LIG1        0.0671
     28 H          -7.4000   29.0100  -32.1800 H       1  LIG1        0.1596
     29 C          -5.1900   31.8500  -30.6800 C.3     1  LIG1        0.0833
     30 H          -5.5900   32.8600  -30.8200 H       1  LIG1        0.0661
     31 H          -4.9100   31.7200  -29.6300 H       1  LIG1        0.0661
     32 O          -6.2500   30.8500  -31.0300 O.3     1  LIG1       -0.4534
     33 H          -4.3200   31.7100  -31.3200 H       1  LIG1        0.0661
@<TRIPOS>BOND
     1    13    26    1
     2    13    14   ar
     3    12    13   ar
     4    14    15   ar
     5    12    25    1
     6    11    12   ar
     7    17    28    1
     8    15    17    1
     9    15    16   ar
    10    17    18   am
    11     8     9    2
    12    11    16   ar
    13    10    11    1
    14    29    33    1
    15    16    27    1
    16    18    32    1
    17    18    19    2
    18    29    32    1
    19    29    30    1
    20     8    10   am
    21     4     8    1
    22    29    31    1
    23    10    24    1
    24     3    20    1
    25     3     4   ar
    26     4     5   ar
    27     2     3   ar
    28     5     7    1
    29     5     6   ar
    30     2    22    1
    31     1     2   ar
    32     1     6   ar
    33     6    23    1
    34     1    21    1
