@<TRIPOS>MOLECULE
lig_ejm_47
 39 41 0 0 0
SMALL
GASTEIGER

@<TRIPOS>ATOM
      1 C          -1.9600   21.5500  -27.3300 C.ar    1  LIG1       -0.0590
      2 C          -1.2900   22.4100  -28.2000 C.ar    1  LIG1       -0.0426
      3 C          -1.9600   22.9500  -29.2900 C.ar    1  LIG1        0.0545
      4 C          -3.3000   22.6200  -29.5400 C.ar    1  LIG1        0.0735
      5 C          -3.9700   21.7600  -28.6500 C.ar    1  LIG1        0.0545
      6 C          -3.2900   21.2300  -27.5600 C.ar    1  LIG1       -0.0426
      7 CL         -5.6400   21.3500  -28.9200 Cl      1  LIG1       -0.0827
      8 C          -4.0400   23.1500  -30.7100 C.2     1  LIG1        0.2511
      9 O          -4.2300   22.4200  -31.6700 O.2     1  LIG1       -0.2698
     10 N          -4.5100   24.4100  -30.6500 N.am    1  LIG1       -0.2813
     11 C          -5.2900   25.1100  -31.5800 C.ar    1  LIG1        0.0384
     12 C          -5.9600   24.5500  -32.6800 C.ar    1  LIG1       -0.0222
     13 C          -6.7800   25.3600  -33.4600 C.ar    1  LIG1        0.0314
     14 N          -6.9200   26.6500  -33.1800 N.ar    1  LIG1       -0.2400
     15 C          -6.3000   27.2300  -32.1600 C.ar    1  LIG1        0.1266
     16 C          -5.5100   26.4600  -31.3100 C.ar    1  LIG1       -0.0003
     17 N          -6.5400   28.5800  -31.8800 N.am    1  LIG1       -0.2701
     18 C          -5.7100   29.4500  -31.2300 C.2     1  LIG1        0.2213
     19 O          -4.6200   29.1200  -30.8100 O.2     1  LIG1       -0.2751
     20 CL         -1.1100   24.0500  -30.3300 Cl      1  LIG1       -0.0827
     21 H          -1.4400   21.1300  -26.4800 H       1  LIG1        0.0618
     22 H          -0.2600   22.6600  -28.0200 H       1  LIG1        0.0632
     23 H          -3.8100   20.5600  -26.8900 H       1  LIG1        0.0632
     24 H          -4.3200   24.9800  -29.8400 H       1  LIG1        0.1551
     25 H          -5.8400   23.5000  -32.9100 H       1  LIG1        0.0651
     26 H          -7.3100   24.9400  -34.3000 H       1  LIG1        0.0831
     27 H          -5.0600   26.9100  -30.4300 H       1  LIG1        0.0671
     28 H          -7.4000   29.0100  -32.1800 H       1  LIG1        0.1562
     29 C          -6.2100   30.8600  -31.0300 C.3     1  LIG1        0.0359
     30 C          -5.6700   31.4800  -29.7300 C.3     1  LIG1       -0.0419
     31 C          -4.5300   32.0900  -30.5500 C.3     1  LIG1       -0.0517
     32 C          -5.3800   31.8800  -31.8100 C.3     1  LIG1       -0.0419
     33 H          -6.3600   32.2500  -29.3200 H       1  LIG1        0.0272
     34 H          -5.3500   30.7400  -28.9600 H       1  LIG1        0.0272
     35 H          -4.3000   33.1500  -30.3100 H       1  LIG1        0.0266
     36 H          -3.6100   31.4500  -30.5500 H       1  LIG1        0.0266
     37 H          -5.9700   32.7900  -32.0700 H       1  LIG1        0.0272
     38 H          -4.8300   31.4700  -32.6900 H       1  LIG1        0.0272
     39 H          -7.2800   30.9700  -31.1500 H       1  LIG1        0.0394
@<TRIPOS>BOND
     1    13    26    1
     2    13    14   ar
     3    12    13   ar
     4    14    15   ar
     5    12    25    1
     6    32    38    1
     7    11    12   ar
     8    17    28    1
     9    15    17    1
    10    15    16   ar
    11    32    37    1
    12    17    18   am
    13    29    32    1
    14    31    32    1
    15     8     9    2
    16    11    16   ar
    17    10    11    1
    18    16    27    1
    19    18    29    1
    20    18    19    2
    21    29    39    1
    22    29    30    1
    23     8    10   am
    24     4     8    1
    25    10    24    1
    26    31    36    1
    27    31    35    1
    28    30    31    1
    29     3    20    1
    30    30    33    1
    31    30    34    1
    32     3     4   ar
    33     4     5   ar
    34     2     3   ar
    35     5     7    1
    36     5     6   ar
    37     2    22    1
    38     1     2   ar
    39     1     6   ar
    40     6    23    1
    41     1    21    1
