CatS_181
 OpenBabel05281909343D

102107  0  0  1  0  0  0  0  0999 V2000
   -0.0089   16.3385   -5.9258 C   0  0  1  0  0  0  0  0  0  0  0  0
   -1.2464   15.9982   -5.0642 C   0  0  0  0  0  0  0  0  0  0  0  0
   -1.7730   14.5941   -5.4242 C   0  0  0  0  0  0  0  0  0  0  0  0
   -2.0996   14.4827   -6.8940 N   0  3  1  0  0  0  0  0  0  0  0  0
   -0.9230   14.8768   -7.7596 C   0  0  0  0  0  0  0  0  0  0  0  0
   -0.4177   16.2905   -7.4109 C   0  0  0  0  0  0  0  0  0  0  0  0
   -2.6548   13.1180   -7.2246 C   0  0  0  0  0  0  0  0  0  0  0  0
   -3.4128   13.0569   -8.5708 C   0  0  1  0  0  0  0  0  0  0  0  0
   -3.3396   11.6547   -9.1997 C   0  0  0  0  0  0  0  0  0  0  0  0
   -4.3388   10.6963   -8.7084 N   0  0  0  0  0  0  0  0  0  0  0  0
   -5.5310   10.3253   -9.2410 C   0  0  0  0  0  0  0  0  0  0  0  0
   -6.2053    9.4822   -8.4579 C   0  0  0  0  0  0  0  0  0  0  0  0
   -5.3401    9.2807   -7.3577 C   0  0  0  0  0  0  0  0  0  0  0  0
   -4.2644   10.0232   -7.5359 N   0  0  0  0  0  0  0  0  0  0  0  0
   -5.5280    8.4130   -6.2060 C   0  0  0  0  0  0  0  0  0  0  0  0
   -4.4677    7.7389   -5.6283 C   0  0  0  0  0  0  0  0  0  0  0  0
   -4.6601    6.9417   -4.5282 C   0  0  0  0  0  0  0  0  0  0  0  0
   -5.9101    6.7699   -3.9697 C   0  0  0  0  0  0  0  0  0  0  0  0
   -6.9758    7.4399   -4.5579 C   0  0  0  0  0  0  0  0  0  0  0  0
   -6.7839    8.2539   -5.6503 C   0  0  0  0  0  0  0  0  0  0  0  0
   -8.6624    7.2887   -3.9527 S   0  0  0  0  0  0  0  0  0  0  0  0
   -9.2128    8.9475   -3.4726 C   0  0  0  0  0  0  0  0  0  0  0  0
   -8.0196    9.8149   -3.0205 C   0  0  0  0  0  0  0  0  0  0  0  0
   -8.4066   10.8677   -2.0653 N   0  3  0  0  0  0  0  0  0  0  0  0
   -9.7689   11.3439   -2.3741 C   0  0  0  0  0  0  0  0  0  0  0  0
  -10.2311   12.4114   -1.3620 C   0  0  0  0  0  0  0  0  0  0  0  0
   -9.2439   13.5919   -1.3598 C   0  0  0  0  0  0  0  0  0  0  0  0
   -7.8202   13.0743   -1.0853 C   0  0  0  0  0  0  0  0  0  0  0  0
   -7.4531   11.9951   -2.1228 C   0  0  0  0  0  0  0  0  0  0  0  0
   -5.9449    5.8566   -2.7418 C   0  0  0  0  0  0  0  0  0  0  0  0
   -4.9473    4.8883   -2.7810 F   0  0  0  0  0  0  0  0  0  0  0  0
   -7.1419    5.1656   -2.5929 F   0  0  0  0  0  0  0  0  0  0  0  0
   -5.7381    6.5908   -1.5779 F   0  0  0  0  0  0  0  0  0  0  0  0
   -7.5837    8.9489   -8.8235 C   0  0  0  0  0  0  0  0  0  0  0  0
   -8.2559    9.7459   -9.8749 N   0  0  0  0  0  0  0  0  0  0  0  0
   -7.3182    9.9450  -11.0006 C   0  0  0  0  0  0  0  0  0  0  0  0
   -6.0940   10.7932  -10.5731 C   0  0  0  0  0  0  0  0  0  0  0  0
   -9.7912    9.3099  -10.1694 S   0  0  0  0  0  0  0  0  0  0  0  0
   -9.8657    7.9419   -9.7664 O   0  0  0  0  0  0  0  0  0  0  0  0
  -10.0690    9.5802  -11.5446 O   0  0  0  0  0  0  0  0  0  0  0  0
  -10.9193   10.2896   -9.1309 C   0  0  0  0  0  0  0  0  0  0  0  0
   -9.5604   14.3841   -0.5172 F   0  0  0  0  0  0  0  0  0  0  0  0
   -9.2595   14.0938   -2.4521 F   0  0  0  0  0  0  0  0  0  0  0  0
    0.6588   17.6948   -5.5706 C   0  0  0  0  0  0  0  0  0  0  0  0
    1.6813   17.5225   -4.4249 C   0  0  0  0  0  0  0  0  0  0  0  0
    2.4179   18.8525   -4.1695 C   0  0  0  0  0  0  0  0  0  0  0  0
    1.4095   19.9598   -3.8041 C   0  0  0  0  0  0  0  0  0  0  0  0
    0.3864   20.1371   -4.9439 C   0  0  0  0  0  0  0  0  0  0  0  0
   -0.3511   18.8079   -5.2015 C   0  0  0  0  0  0  0  0  0  0  0  0
   -4.5659   13.3632   -8.4237 O   0  0  0  0  0  0  0  0  0  0  0  0
   -2.8848   13.8326   -9.3196 H   0  0  0  0  0  0  0  0  0  0  0  0
   -0.9572   16.0262   -3.9003 H   0  0  0  0  0  0  0  0  0  0  0  0
   -2.1164   16.7945   -5.2855 H   0  0  0  0  0  0  0  0  0  0  0  0
   -2.7427   14.3689   -4.7525 H   0  0  0  0  0  0  0  0  0  0  0  0
   -0.9256   13.7866   -5.1600 H   0  0  0  0  0  0  0  0  0  0  0  0
   -1.1758   14.9046   -8.9294 H   0  0  0  0  0  0  0  0  0  0  0  0
   -0.0361   14.0875   -7.5850 H   0  0  0  0  0  0  0  0  0  0  0  0
    0.5240   16.5327   -8.1131 H   0  0  0  0  0  0  0  0  0  0  0  0
   -1.2895   17.0876   -7.6195 H   0  0  0  0  0  0  0  0  0  0  0  0
   -3.4246   12.7621   -6.3749 H   0  0  0  0  0  0  0  0  0  0  0  0
   -1.7163   12.3715   -7.2171 H   0  0  0  0  0  0  0  0  0  0  0  0
   -3.4749   11.7685  -10.3870 H   0  0  0  0  0  0  0  0  0  0  0  0
   -2.2549   11.1929   -8.9842 H   0  0  0  0  0  0  0  0  0  0  0  0
   -3.5486    7.8383   -6.0088 H   0  0  0  0  0  0  0  0  0  0  0  0
   -3.8719    6.4755   -4.1251 H   0  0  0  0  0  0  0  0  0  0  0  0
   -7.5650    8.7320   -6.0517 H   0  0  0  0  0  0  0  0  0  0  0  0
   -9.7313    9.4498   -4.4317 H   0  0  0  0  0  0  0  0  0  0  0  0
  -10.0244    8.8693   -2.5916 H   0  0  0  0  0  0  0  0  0  0  0  0
   -7.5949   10.3440   -4.0119 H   0  0  0  0  0  0  0  0  0  0  0  0
   -7.1413    9.1327   -2.5673 H   0  0  0  0  0  0  0  0  0  0  0  0
  -10.5485   10.4349   -2.3164 H   0  0  0  0  0  0  0  0  0  0  0  0
   -9.7884   11.8009   -3.4841 H   0  0  0  0  0  0  0  0  0  0  0  0
  -10.2649   11.9165   -0.2700 H   0  0  0  0  0  0  0  0  0  0  0  0
  -11.3257   12.8013   -1.6600 H   0  0  0  0  0  0  0  0  0  0  0  0
   -7.0418   13.9840   -1.1570 H   0  0  0  0  0  0  0  0  0  0  0  0
   -7.7743   12.5990    0.0153 H   0  0  0  0  0  0  0  0  0  0  0  0
   -7.4593   12.4814   -3.2210 H   0  0  0  0  0  0  0  0  0  0  0  0
   -6.3400   11.6217   -1.8749 H   0  0  0  0  0  0  0  0  0  0  0  0
   -7.4860    7.8083   -9.1819 H   0  0  0  0  0  0  0  0  0  0  0  0
   -8.2798    8.9947   -7.8457 H   0  0  0  0  0  0  0  0  0  0  0  0
   -6.9428    8.8783  -11.4010 H   0  0  0  0  0  0  0  0  0  0  0  0
   -7.8698   10.5229  -11.8949 H   0  0  0  0  0  0  0  0  0  0  0  0
   -6.4274   11.9415  -10.4688 H   0  0  0  0  0  0  0  0  0  0  0  0
   -5.2559   10.6981  -11.4259 H   0  0  0  0  0  0  0  0  0  0  0  0
  -11.0139   11.4131   -9.5425 H   0  0  0  0  0  0  0  0  0  0  0  0
  -12.0132    9.7992   -9.1411 H   0  0  0  0  0  0  0  0  0  0  0  0
  -10.5202   10.3164   -7.9992 H   0  0  0  0  0  0  0  0  0  0  0  0
   -2.7616   15.0872   -7.0587 H   0  0  0  0  0  0  0  0  0  0  0  0
   -8.4049   10.5162   -1.2236 H   0  0  0  0  0  0  0  0  0  0  0  0
    1.1176   17.1803   -3.4233 H   0  0  0  0  0  0  0  0  0  0  0  0
   -1.1415   18.9584   -6.0911 H   0  0  0  0  0  0  0  0  0  0  0  0
    3.2009   18.7090   -3.2714 H   0  0  0  0  0  0  0  0  0  0  0  0
    0.8320   19.6530   -2.7978 H   0  0  0  0  0  0  0  0  0  0  0  0
   -0.4101   20.9797   -4.6339 H   0  0  0  0  0  0  0  0  0  0  0  0
    2.4996   16.6976   -4.7248 H   0  0  0  0  0  0  0  0  0  0  0  0
   -0.9257   18.5003   -4.1940 H   0  0  0  0  0  0  0  0  0  0  0  0
    3.0072   19.1723   -5.1651 H   0  0  0  0  0  0  0  0  0  0  0  0
    1.9967   20.9914   -3.6287 H   0  0  0  0  0  0  0  0  0  0  0  0
    0.9596   20.4783   -5.9416 H   0  0  0  0  0  0  0  0  0  0  0  0
    1.2875   18.0823   -6.5167 H   0  0  0  0  0  0  0  0  0  0  0  0
    0.7935   15.4604   -5.7701 H   0  0  0  0  0  0  0  0  0  0  0  0
   -5.0805   13.2718   -9.2833 H   0  0  0  0  0  0  0  0  0  0  0  0
  1  2  1  0  0  0  0
  1  6  1  0  0  0  0
  1101  1  1  0  0  0
  2  3  1  0  0  0  0
  2 52  1  0  0  0  0
  2 53  1  0  0  0  0
  3  4  1  0  0  0  0
  3 54  1  0  0  0  0
  3 55  1  0  0  0  0
  4  5  1  0  0  0  0
  4  7  1  0  0  0  0
  4 88  1  6  0  0  0
  5  6  1  0  0  0  0
  5 56  1  0  0  0  0
  5 57  1  0  0  0  0
  6 58  1  0  0  0  0
  6 59  1  0  0  0  0
  7  8  1  0  0  0  0
  7 60  1  0  0  0  0
  7 61  1  0  0  0  0
  8  9  1  0  0  0  0
  8 50  1  0  0  0  0
  8 51  1  6  0  0  0
  9 10  1  0  0  0  0
  9 62  1  0  0  0  0
  9 63  1  0  0  0  0
 10 11  1  0  0  0  0
 10 14  1  0  0  0  0
 11 12  2  0  0  0  0
 11 37  1  0  0  0  0
 12 13  1  0  0  0  0
 12 34  1  0  0  0  0
 13 14  2  0  0  0  0
 13 15  1  0  0  0  0
 15 16  2  0  0  0  0
 15 20  1  0  0  0  0
 16 17  1  0  0  0  0
 16 64  1  0  0  0  0
 17 18  2  0  0  0  0
 17 65  1  0  0  0  0
 18 19  1  0  0  0  0
 18 30  1  0  0  0  0
 19 20  2  0  0  0  0
 19 21  1  0  0  0  0
 20 66  1  0  0  0  0
 21 22  1  0  0  0  0
 22 23  1  0  0  0  0
 22 67  1  0  0  0  0
 22 68  1  0  0  0  0
 23 24  1  0  0  0  0
 23 69  1  0  0  0  0
 23 70  1  0  0  0  0
 24 25  1  0  0  0  0
 24 29  1  0  0  0  0
 25 26  1  0  0  0  0
 25 71  1  0  0  0  0
 25 72  1  0  0  0  0
 26 27  1  0  0  0  0
 26 73  1  0  0  0  0
 26 74  1  0  0  0  0
 27 28  1  0  0  0  0
 27 42  1  0  0  0  0
 28 29  1  0  0  0  0
 28 75  1  0  0  0  0
 28 76  1  0  0  0  0
 29 77  1  0  0  0  0
 29 78  1  0  0  0  0
 30 31  1  0  0  0  0
 30 32  1  0  0  0  0
 30 33  1  0  0  0  0
 34 35  1  0  0  0  0
 34 79  1  0  0  0  0
 34 80  1  0  0  0  0
 35 36  1  0  0  0  0
 35 38  1  0  0  0  0
 36 37  1  0  0  0  0
 36 81  1  0  0  0  0
 36 82  1  0  0  0  0
 37 83  1  0  0  0  0
 37 84  1  0  0  0  0
 38 39  2  0  0  0  0
 38 40  2  0  0  0  0
 38 41  1  0  0  0  0
 41 85  1  0  0  0  0
 41 86  1  0  0  0  0
 41 87  1  0  0  0  0
 43 27  1  0  0  0  0
 44  1  1  0  0  0  0
 44 49  1  0  0  0  0
 45 44  1  0  0  0  0
 46 45  1  0  0  0  0
 47 46  1  0  0  0  0
 48 47  1  0  0  0  0
 49 48  1  0  0  0  0
 50102  1  0  0  0  0
 89 24  1  0  0  0  0
 90 45  1  0  0  0  0
 91 49  1  0  0  0  0
 92 46  1  0  0  0  0
 93 47  1  0  0  0  0
 94 48  1  0  0  0  0
 95 45  1  0  0  0  0
 96 49  1  0  0  0  0
 97 46  1  0  0  0  0
 98 47  1  0  0  0  0
 99 48  1  0  0  0  0
100 44  1  0  0  0  0
M  CHG  2   4   1  24   1
M  END
$$$$
