lig_18632-1
     RDKit          3D

 42 43  0  0  0  0  0  0  0  0999 V2000
   22.8350   10.6130   29.0690 C   0  0  0  0  0  0  0  0  0  0  0  0
   23.2560   10.8540   30.5240 C   0  0  0  0  0  0  0  0  0  0  0  0
   22.1210   11.1380   31.3460 O   0  0  0  0  0  0  0  0  0  0  0  0
   21.3030   10.1140   31.7940 C   0  0  0  0  0  0  0  0  0  0  0  0
   21.6560    8.8450   31.4620 N   0  0  0  0  0  0  0  0  0  0  0  0
   20.8560    7.8400   31.8370 C   0  0  0  0  0  0  0  0  0  0  0  0
   19.7060    8.0210   32.5850 C   0  0  0  0  0  0  0  0  0  0  0  0
   19.3550    9.3100   32.9400 C   0  0  0  0  0  0  0  0  0  0  0  0
   18.1850    9.4220   33.6780 N   0  0  0  0  0  0  0  0  0  0  0  0
   20.1560   10.3960   32.5460 C   0  0  0  0  0  0  0  0  0  0  0  0
   19.8390   11.7810   32.8750 C   0  0  0  0  0  0  0  0  0  0  0  0
   19.5960   12.8840   33.1330 N   0  0  0  0  0  0  0  0  0  0  0  0
   21.3590    6.6310   31.4180 N   0  0  0  0  0  0  0  0  0  0  0  0
   20.7260    5.4860   31.1540 C   0  0  0  0  0  0  0  0  0  0  0  0
   19.5060    5.3620   31.2300 O   0  0  0  0  0  0  0  0  0  0  0  0
   21.5720    4.2760   30.7230 C   0  0  0  0  0  0  0  0  0  0  0  0
   23.0670    4.5580   30.5720 C   0  0  0  0  0  0  0  0  0  0  0  0
   23.9660    4.1690   31.5710 C   0  0  0  0  0  0  0  0  0  0  0  0
   25.3370    4.3580   31.4210 C   0  0  0  0  0  0  0  0  0  0  0  0
   26.1330    3.8950   32.4460 O   0  0  0  0  0  0  0  0  0  0  0  0
   27.5410    4.0840   32.3620 C   0  0  0  0  0  0  0  0  0  0  0  0
   25.8100    4.9780   30.2550 C   0  0  0  0  0  0  0  0  0  0  0  0
   24.9200    5.3920   29.2620 C   0  0  0  0  0  0  0  0  0  0  0  0
   23.5510    5.1790   29.4200 C   0  0  0  0  0  0  0  0  0  0  0  0
   23.7030   10.4790   28.4250 H   0  0  0  0  0  0  0  0  0  0  0  0
   22.2150    9.7220   28.9750 H   0  0  0  0  0  0  0  0  0  0  0  0
   22.2620   11.4570   28.6850 H   0  0  0  0  0  0  0  0  0  0  0  0
   23.8510   10.0250   30.9150 H   0  0  0  0  0  0  0  0  0  0  0  0
   23.9090   11.7270   30.5640 H   0  0  0  0  0  0  0  0  0  0  0  0
   19.0960    7.1840   32.8820 H   0  0  0  0  0  0  0  0  0  0  0  0
   17.7190    8.5830   34.0120 H   0  0  0  0  0  0  0  0  0  0  0  0
   17.8210   10.3380   33.9320 H   0  0  0  0  0  0  0  0  0  0  0  0
   22.3510    6.6750   31.2620 H   0  0  0  0  0  0  0  0  0  0  0  0
   21.4060    3.4780   31.4450 H   0  0  0  0  0  0  0  0  0  0  0  0
   21.1890    3.9160   29.7720 H   0  0  0  0  0  0  0  0  0  0  0  0
   23.6110    3.6890   32.4710 H   0  0  0  0  0  0  0  0  0  0  0  0
   28.0180    3.6450   33.2380 H   0  0  0  0  0  0  0  0  0  0  0  0
   27.9620    3.5930   31.4850 H   0  0  0  0  0  0  0  0  0  0  0  0
   27.8010    5.1430   32.3420 H   0  0  0  0  0  0  0  0  0  0  0  0
   26.8650    5.1410   30.1020 H   0  0  0  0  0  0  0  0  0  0  0  0
   25.2920    5.8690   28.3660 H   0  0  0  0  0  0  0  0  0  0  0  0
   22.8720    5.4960   28.6400 H   0  0  0  0  0  0  0  0  0  0  0  0
  1  2  1  0
  1 25  1  0
  1 26  1  0
  1 27  1  0
  2  3  1  0
  2 28  1  0
  2 29  1  0
  3  4  1  0
  4 10  2  0
  4  5  1  0
  5  6  2  0
  6  7  1  0
  6 13  1  0
  7  8  2  0
  7 30  1  0
  8  9  1  0
  8 10  1  0
  9 31  1  0
  9 32  1  0
 10 11  1  0
 11 12  3  0
 13 14  1  0
 13 33  1  0
 14 15  2  0
 14 16  1  0
 16 17  1  0
 16 34  1  0
 16 35  1  0
 17 24  1  0
 17 18  2  0
 18 19  1  0
 18 36  1  0
 19 20  1  0
 19 22  2  0
 20 21  1  0
 21 37  1  0
 21 38  1  0
 21 39  1  0
 22 23  1  0
 22 40  1  0
 23 24  2  0
 23 41  1  0
 24 42  1  0
M  END
$$$$
