lig_p38a_2g
                    3D
 Structure written by MMmdl.
 46 49  0  0  1  0            999 V2000
   34.5500   34.9800   21.1800 C   0  0  0  0  0  0
   34.0400   38.9800   23.7400 C   0  0  0  0  0  0
   34.8000   37.8100   21.4400 C   0  0  0  0  0  0
   35.2500   37.1300   20.2300 C   0  0  0  0  0  0
   34.3100   37.0400   22.5100 C   0  0  0  0  0  0
   34.8500   39.2100   21.6200 C   0  0  0  0  0  0
   35.1700   35.7800   20.1300 C   0  0  0  0  0  0
   33.6700   34.8300   23.4600 C   0  0  0  0  0  0
   34.4800   39.7900   22.7800 N   0  0  0  0  0  0
   34.3300   33.7800   21.0200 O   0  0  0  0  0  0
   34.2100   35.6200   22.3400 N   0  0  0  0  0  0
   33.9300   37.6500   23.6600 N   0  0  0  0  0  0
   33.6700   39.5700   24.9300 N   0  0  0  0  0  0
   35.7000   37.7400   19.4700 H   0  0  0  0  0  0
   35.2200   39.8600   20.8400 H   0  0  0  0  0  0
   33.4000   35.4700   24.3000 H   0  0  0  0  0  0
   32.7700   34.3000   23.1400 H   0  0  0  0  0  0
   34.3700   34.1000   23.8700 H   0  0  0  0  0  0
   33.7900   40.5700   24.9700 H   0  0  0  0  0  0
   31.1300   38.3300   27.4800 C   0  0  0  0  0  0
   31.7000   39.1500   26.3100 C   0  0  0  0  0  0
   33.1500   38.7500   26.0100 C   0  0  0  0  0  0
   34.0300   38.9100   27.2600 C   0  0  0  0  0  0
   33.4700   38.1000   28.4300 C   0  0  0  0  0  0
   32.0100   38.4900   28.7300 O   0  0  0  0  0  0
   31.0900   37.2500   27.2000 H   0  0  0  0  0  0
   30.0900   38.6500   27.7100 H   0  0  0  0  0  0
   31.6500   40.2300   26.5500 H   0  0  0  0  0  0
   31.0600   38.9900   25.4000 H   0  0  0  0  0  0
   33.1900   37.6900   25.6600 H   0  0  0  0  0  0
   35.0800   38.5900   27.0300 H   0  0  0  0  0  0
   34.0800   39.9900   27.5400 H   0  0  0  0  0  0
   33.5200   37.0100   28.1900 H   0  0  0  0  0  0
   34.1000   38.2500   29.3400 H   0  0  0  0  0  0
   35.6600   35.1800   19.0100 O   0  0  0  0  0  0
   37.2600   38.0600   16.4500 C   0  0  0  0  0  0
   38.0400   37.5300   17.4900 C   0  0  0  0  0  0
   37.5100   36.5600   18.3500 C   0  0  0  0  0  0
   36.1900   36.1200   18.1700 C   0  0  0  0  0  0
   35.4000   36.6500   17.1300 C   0  0  0  0  0  0
   35.9400   37.6200   16.2700 C   0  0  0  0  0  0
   37.6800   38.8200   15.7800 H   0  0  0  0  0  0
   39.0800   37.8800   17.6300 H   0  0  0  0  0  0
   38.2500   36.0600   19.3400 F   0  0  0  0  0  0
   34.3700   36.3000   16.9900 H   0  0  0  0  0  0
   35.3300   38.0300   15.4600 H   0  0  0  0  0  0
  1  7  1  0  0  0
  1 10  2  0  0  0
  1 11  1  0  0  0
  2  9  1  0  0  0
  2 12  2  0  0  0
  2 13  1  0  0  0
  3  4  1  0  0  0
  3  5  2  0  0  0
  3  6  1  0  0  0
  4  7  2  0  0  0
  4 14  1  0  0  0
  5 11  1  0  0  0
  5 12  1  0  0  0
  6  9  2  0  0  0
  6 15  1  0  0  0
  7 35  1  0  0  0
  8 11  1  0  0  0
  8 16  1  0  0  0
  8 17  1  0  0  0
  8 18  1  0  0  0
 13 19  1  0  0  0
 13 22  1  0  0  0
 20 21  1  0  0  0
 20 25  1  0  0  0
 20 26  1  0  0  0
 20 27  1  0  0  0
 21 22  1  0  0  0
 21 28  1  0  0  0
 21 29  1  0  0  0
 22 23  1  0  0  0
 22 30  1  0  0  0
 23 24  1  0  0  0
 23 31  1  0  0  0
 23 32  1  0  0  0
 24 25  1  0  0  0
 24 33  1  0  0  0
 24 34  1  0  0  0
 35 39  1  0  0  0
 36 37  1  0  0  0
 36 41  2  0  0  0
 36 42  1  0  0  0
 37 38  2  0  0  0
 37 43  1  0  0  0
 38 39  1  0  0  0
 38 44  1  0  0  0
 39 40  2  0  0  0
 40 41  1  0  0  0
 40 45  1  0  0  0
 41 46  1  0  0  0
M  END
> <s_m_entry_id>
7

> <s_m_entry_name>
lig_p38a_2g.1

> <s_pdb_PDB_TITLE>
MX MODEL

> <i_pdb_PDB_Model>
1

> <r_pdb_PDB_CRYST1_a>
179.86

> <r_pdb_PDB_CRYST1_b>
135.86

> <r_pdb_PDB_CRYST1_c>
277.72

> <r_pdb_PDB_CRYST1_alpha>
90

> <r_pdb_PDB_CRYST1_beta>
90

> <r_pdb_PDB_CRYST1_gamma>
90

> <s_pdb_PDB_CRYST1_Space_Group>
P 1

> <i_pdb_PDB_CRYST1_z>
1

> <s_pdb_PDB_format_version>
3.0

> <s_m_Source_Path>
/users/home/dhahn3/projects/PLBenchmarks/PLBenchmarks/data/2019-12-09_p38/03_docked

> <s_m_Source_File>
lig_p38a_2g.pdb

> <i_m_Source_File_Index>
1

$$$$
