@<TRIPOS>MOLECULE
systems/pde2/lig_48168913/lig_48168913.pdb
 50 54 0 0 0
SMALL
GASTEIGER

@<TRIPOS>ATOM
      1 H          -3.0910   22.4110   18.2740 H       1  LIG1        0.0633
      2 C          -2.3780   22.2610   19.0720 C.ar    1  LIG1       -0.0429
      3 C          -1.0750   21.9000   18.7190 C.ar    1  LIG1        0.0279
      4 N          -0.0960   21.6390   19.6220 N.ar    1  LIG1       -0.2595
      5 C          -0.4090   21.7310   20.9380 C.ar    1  LIG1        0.0489
      6 C          -2.6670   22.3670   20.4430 C.ar    1  LIG1       -0.0479
      7 C          -1.6780   22.0990   21.3940 C.ar    1  LIG1        0.0406
      8 C          -2.0080   22.0870   22.8420 C.ar    1  LIG1        0.1708
      9 N          -2.9560   21.3040   23.3160 N.ar    1  LIG1       -0.1283
     10 N          -2.9530   21.3360   24.6930 N.ar    1  LIG1       -0.1272
     11 C          -1.9680   22.1870   25.0440 C.ar    1  LIG1        0.1830
     12 C          -1.4650   22.5800   26.2920 C.ar    1  LIG1        0.0834
     13 C          -1.9850   22.0640   27.6200 C.3     1  LIG1       -0.0187
     14 N          -0.4410   23.4620   26.3970 N.ar    1  LIG1       -0.2467
     15 N          -1.3710   22.7400   23.8950 N.ar    1  LIG1       -0.2721
     16 C          -0.3900   23.6820   23.9640 C.ar    1  LIG1        0.0757
     17 C           0.1480   24.3760   22.8360 C.ar    1  LIG1       -0.0312
     18 C           1.1600   25.3300   23.0180 C.ar    1  LIG1       -0.0313
     19 C           1.6270   25.6100   24.3030 C.ar    1  LIG1       -0.0552
     20 C           1.1020   24.9720   25.4180 C.ar    1  LIG1       -0.0340
     21 C           0.0820   24.0150   25.2710 C.ar    1  LIG1        0.0881
     22 C           1.7590   26.1290   21.8550 C.3     1  LIG1        0.0243
     23 N           2.5760   25.3940   20.8730 N.3     1  LIG1       -0.2938
     24 C           3.1310   24.1260   21.3590 C.3     1  LIG1        0.0228
     25 C           4.0180   23.4610   20.2880 C.3     1  LIG1        0.0604
     26 O           5.0690   24.3360   19.8930 O.3     1  LIG1       -0.3772
     27 C           4.5850   25.5780   19.3870 C.3     1  LIG1        0.0604
     28 C           3.6570   26.2770   20.4050 C.3     1  LIG1        0.0228
     29 H          -0.7970   21.8030   17.6800 H       1  LIG1        0.0829
     30 C           0.7130   21.3730   21.9300 C.3     1  LIG1       -0.0217
     31 H          -3.6550   22.6250   20.7890 H       1  LIG1        0.0626
     32 H          -1.1880   21.5780   28.1830 H       1  LIG1        0.0294
     33 H          -2.3850   22.8830   28.2180 H       1  LIG1        0.0294
     34 H          -2.7810   21.3320   27.4770 H       1  LIG1        0.0294
     35 H          -0.2280   24.1970   21.8420 H       1  LIG1        0.0642
     36 H           2.3980   26.3530   24.4490 H       1  LIG1        0.0621
     37 H           1.4530   25.2230   26.4080 H       1  LIG1        0.0639
     38 H           2.3490   26.9440   22.2800 H       1  LIG1        0.0476
     39 H           0.9370   26.6050   21.3200 H       1  LIG1        0.0476
     40 H           2.3110   23.4460   21.5720 H       1  LIG1        0.0449
     41 H           3.6890   24.2640   22.2850 H       1  LIG1        0.0449
     42 H           3.4210   23.1720   19.4210 H       1  LIG1        0.0572
     43 H           4.4420   22.5380   20.6790 H       1  LIG1        0.0572
     44 H           4.0700   25.4230   18.4370 H       1  LIG1        0.0572
     45 H           5.4390   26.2190   19.1660 H       1  LIG1        0.0572
     46 H           4.2600   26.6200   21.2480 H       1  LIG1        0.0449
     47 H           3.2310   27.1710   19.9480 H       1  LIG1        0.0449
     48 H           0.3460   21.4840   22.9500 H       1  LIG1        0.0293
     49 H           1.0280   20.3420   21.7670 H       1  LIG1        0.0293
     50 H           1.5610   22.0400   21.7750 H       1  LIG1        0.0293
@<TRIPOS>BOND
     1     1     2    1
     2     2     3   ar
     3     2     6   ar
     4     3     4   ar
     5     3    29    1
     6     4     5   ar
     7     5     7   ar
     8     5    30    1
     9     6     7   ar
    10     6    31    1
    11     7     8    1
    12     8     9   ar
    13     8    15   ar
    14     9    10   ar
    15    10    11   ar
    16    11    12   ar
    17    11    15   ar
    18    12    13    1
    19    12    14   ar
    20    13    32    1
    21    13    33    1
    22    13    34    1
    23    14    21   ar
    24    15    16   ar
    25    16    17   ar
    26    16    21   ar
    27    17    18   ar
    28    17    35    1
    29    18    19   ar
    30    18    22    1
    31    19    20   ar
    32    19    36    1
    33    20    21   ar
    34    20    37    1
    35    22    23    1
    36    22    38    1
    37    22    39    1
    38    23    24    1
    39    23    28    1
    40    24    25    1
    41    24    40    1
    42    24    41    1
    43    25    26    1
    44    25    42    1
    45    25    43    1
    46    26    27    1
    47    27    28    1
    48    27    44    1
    49    27    45    1
    50    28    46    1
    51    28    47    1
    52    30    48    1
    53    30    49    1
    54    30    50    1
