@<TRIPOS>MOLECULE
systems/pde2/lig_49580115/lig_49580115.pdb
 54 58 0 0 0
SMALL
GASTEIGER

@<TRIPOS>ATOM
      1 F          -5.5890   25.2000   18.8580 F       1  LIG1       -0.2455
      2 C          -4.4140   24.5820   18.4810 C.3     1  LIG1        0.1241
      3 C          -4.5550   23.0560   18.3260 C.3     1  LIG1        0.1177
      4 O          -3.2900   22.4520   18.0510 O.3     1  LIG1       -0.4879
      5 C          -2.3780   22.2610   19.0720 C.ar    1  LIG1        0.1393
      6 C          -1.0750   21.9000   18.7190 C.ar    1  LIG1        0.0692
      7 N          -0.0960   21.6390   19.6220 N.ar    1  LIG1       -0.2589
      8 C          -0.4090   21.7310   20.9380 C.ar    1  LIG1        0.0385
      9 C          -2.6670   22.3670   20.4430 C.ar    1  LIG1       -0.0063
     10 C          -1.6780   22.0990   21.3940 C.ar    1  LIG1        0.0411
     11 C          -2.0080   22.0870   22.8420 C.ar    1  LIG1        0.1707
     12 N          -2.9560   21.3040   23.3160 N.ar    1  LIG1       -0.1284
     13 N          -2.9530   21.3360   24.6930 N.ar    1  LIG1       -0.1272
     14 C          -1.9680   22.1870   25.0440 C.ar    1  LIG1        0.1830
     15 C          -1.4650   22.5800   26.2920 C.ar    1  LIG1        0.0834
     16 C          -1.9850   22.0640   27.6200 C.3     1  LIG1       -0.0187
     17 N          -0.4410   23.4620   26.3970 N.ar    1  LIG1       -0.2467
     18 N          -1.3710   22.7400   23.8950 N.ar    1  LIG1       -0.2721
     19 C          -0.3900   23.6820   23.9640 C.ar    1  LIG1        0.0757
     20 C           0.1480   24.3760   22.8360 C.ar    1  LIG1       -0.0312
     21 C           1.1600   25.3300   23.0180 C.ar    1  LIG1       -0.0313
     22 C           1.6270   25.6100   24.3030 C.ar    1  LIG1       -0.0552
     23 C           1.1020   24.9720   25.4180 C.ar    1  LIG1       -0.0340
     24 C           0.0820   24.0150   25.2710 C.ar    1  LIG1        0.0881
     25 C           1.7590   26.1290   21.8550 C.3     1  LIG1        0.0243
     26 N           2.5760   25.3940   20.8730 N.3     1  LIG1       -0.2938
     27 C           3.1380   24.1300   21.3610 C.3     1  LIG1        0.0228
     28 C           4.0240   23.4650   20.2900 C.3     1  LIG1        0.0604
     29 O           5.0700   24.3430   19.8890 O.3     1  LIG1       -0.3772
     30 C           4.5800   25.5810   19.3800 C.3     1  LIG1        0.0604
     31 C           3.6510   26.2800   20.3990 C.3     1  LIG1        0.0228
     32 H          -3.6330   24.8100   19.2060 H       1  LIG1        0.0649
     33 H          -4.0790   25.0030   17.5310 H       1  LIG1        0.0649
     34 H          -5.1940   22.8420   17.4710 H       1  LIG1        0.0723
     35 H          -5.0640   22.5990   19.1750 H       1  LIG1        0.0723
     36 H          -0.7970   21.8030   17.6800 H       1  LIG1        0.0867
     37 H           0.3780   21.4800   21.6340 H       1  LIG1        0.0837
     38 H          -3.6550   22.6250   20.7890 H       1  LIG1        0.0662
     39 H          -1.1880   21.5780   28.1830 H       1  LIG1        0.0294
     40 H          -2.3850   22.8830   28.2180 H       1  LIG1        0.0294
     41 H          -2.7810   21.3320   27.4770 H       1  LIG1        0.0294
     42 H          -0.2280   24.1970   21.8420 H       1  LIG1        0.0642
     43 H           2.3980   26.3530   24.4490 H       1  LIG1        0.0621
     44 H           1.4530   25.2230   26.4080 H       1  LIG1        0.0639
     45 H           2.3490   26.9440   22.2800 H       1  LIG1        0.0476
     46 H           0.9370   26.6050   21.3200 H       1  LIG1        0.0476
     47 H           2.3210   23.4470   21.5800 H       1  LIG1        0.0449
     48 H           3.6980   24.2730   22.2860 H       1  LIG1        0.0449
     49 H           3.4260   23.1710   19.4260 H       1  LIG1        0.0572
     50 H           4.4530   22.5450   20.6830 H       1  LIG1        0.0572
     51 H           4.0620   25.4210   18.4330 H       1  LIG1        0.0572
     52 H           5.4300   26.2250   19.1540 H       1  LIG1        0.0572
     53 H           4.2560   26.6280   21.2390 H       1  LIG1        0.0449
     54 H           3.2210   27.1710   19.9400 H       1  LIG1        0.0449
@<TRIPOS>BOND
     1     1     2    1
     2     2     3    1
     3     2    32    1
     4     2    33    1
     5     3     4    1
     6     3    34    1
     7     3    35    1
     8     4     5    1
     9     5     6   ar
    10     5     9   ar
    11     6     7   ar
    12     6    36    1
    13     7     8   ar
    14     8    10   ar
    15     8    37    1
    16     9    10   ar
    17     9    38    1
    18    10    11    1
    19    11    12   ar
    20    11    18   ar
    21    12    13   ar
    22    13    14   ar
    23    14    15   ar
    24    14    18   ar
    25    15    16    1
    26    15    17   ar
    27    16    39    1
    28    16    40    1
    29    16    41    1
    30    17    24   ar
    31    18    19   ar
    32    19    20   ar
    33    19    24   ar
    34    20    21   ar
    35    20    42    1
    36    21    22   ar
    37    21    25    1
    38    22    23   ar
    39    22    43    1
    40    23    24   ar
    41    23    44    1
    42    25    26    1
    43    25    45    1
    44    25    46    1
    45    26    27    1
    46    26    31    1
    47    27    28    1
    48    27    47    1
    49    27    48    1
    50    28    29    1
    51    28    49    1
    52    28    50    1
    53    29    30    1
    54    30    31    1
    55    30    51    1
    56    30    52    1
    57    31    53    1
    58    31    54    1
