@<TRIPOS>MOLECULE
systems/pde2/lig_50181001/lig_50181001.pdb
 60 64 0 0 0
SMALL
GASTEIGER

@<TRIPOS>ATOM
      1 C          -5.6720   26.8080   18.5440 C.3     1  LIG1       -0.0652
      2 C          -5.7060   25.3040   18.8480 C.3     1  LIG1       -0.0528
      3 C          -4.3920   24.5940   18.4780 C.3     1  LIG1       -0.0189
      4 C          -4.5490   23.0700   18.3230 C.3     1  LIG1        0.0897
      5 O          -3.2900   22.4520   18.0510 O.3     1  LIG1       -0.4889
      6 C          -2.3780   22.2610   19.0720 C.ar    1  LIG1        0.1578
      7 C          -1.0750   21.9000   18.7190 C.ar    1  LIG1        0.1708
      8 N          -0.0960   21.6390   19.6220 N.ar    1  LIG1       -0.2393
      9 C          -0.4090   21.7310   20.9380 C.ar    1  LIG1        0.0402
     10 C          -2.6670   22.3670   20.4430 C.ar    1  LIG1       -0.0048
     11 C          -1.6780   22.0990   21.3940 C.ar    1  LIG1        0.0412
     12 C          -2.0080   22.0870   22.8420 C.ar    1  LIG1        0.1707
     13 N          -2.9560   21.3040   23.3160 N.ar    1  LIG1       -0.1284
     14 N          -2.9530   21.3360   24.6930 N.ar    1  LIG1       -0.1272
     15 C          -1.9680   22.1870   25.0440 C.ar    1  LIG1        0.1830
     16 C          -1.4650   22.5800   26.2920 C.ar    1  LIG1        0.0834
     17 C          -1.9850   22.0640   27.6200 C.3     1  LIG1       -0.0187
     18 N          -0.4410   23.4620   26.3970 N.ar    1  LIG1       -0.2467
     19 N          -1.3710   22.7400   23.8950 N.ar    1  LIG1       -0.2721
     20 C          -0.3900   23.6820   23.9640 C.ar    1  LIG1        0.0757
     21 C           0.1480   24.3760   22.8360 C.ar    1  LIG1       -0.0312
     22 C           1.1600   25.3300   23.0180 C.ar    1  LIG1       -0.0313
     23 C           1.6270   25.6100   24.3030 C.ar    1  LIG1       -0.0552
     24 C           1.1020   24.9720   25.4180 C.ar    1  LIG1       -0.0340
     25 C           0.0820   24.0150   25.2710 C.ar    1  LIG1        0.0881
     26 C           1.7590   26.1290   21.8550 C.3     1  LIG1        0.0243
     27 N           2.5680   25.3920   20.8680 N.3     1  LIG1       -0.2938
     28 C           3.1550   24.1410   21.3610 C.3     1  LIG1        0.0228
     29 C           4.0310   23.4740   20.2830 C.3     1  LIG1        0.0604
     30 O           5.0570   24.3610   19.8530 O.3     1  LIG1       -0.3772
     31 C           4.5430   25.5860   19.3370 C.3     1  LIG1        0.0604
     32 C           3.6240   26.2860   20.3640 C.3     1  LIG1        0.0228
     33 H          -6.6040   27.2930   18.8290 H       1  LIG1        0.0230
     34 H          -4.8670   27.3040   19.0880 H       1  LIG1        0.0230
     35 H          -5.5230   26.9920   17.4800 H       1  LIG1        0.0230
     36 H          -6.5320   24.8480   18.3010 H       1  LIG1        0.0264
     37 H          -5.9210   25.1520   19.9060 H       1  LIG1        0.0264
     38 H          -3.6350   24.8140   19.2310 H       1  LIG1        0.0298
     39 H          -4.0160   25.0070   17.5400 H       1  LIG1        0.0298
     40 H          -5.1880   22.8630   17.4670 H       1  LIG1        0.0696
     41 H          -5.0650   22.6180   19.1710 H       1  LIG1        0.0696
     42 CL         -0.6300   21.7450   17.0550 Cl      1  LIG1       -0.0581
     43 H           0.3780   21.4800   21.6340 H       1  LIG1        0.0837
     44 H          -3.6550   22.6250   20.7890 H       1  LIG1        0.0663
     45 H          -1.1880   21.5780   28.1830 H       1  LIG1        0.0294
     46 H          -2.3850   22.8830   28.2180 H       1  LIG1        0.0294
     47 H          -2.7810   21.3320   27.4770 H       1  LIG1        0.0294
     48 H          -0.2280   24.1970   21.8420 H       1  LIG1        0.0642
     49 H           2.3980   26.3530   24.4490 H       1  LIG1        0.0621
     50 H           1.4530   25.2230   26.4080 H       1  LIG1        0.0639
     51 H           2.3560   26.9400   22.2800 H       1  LIG1        0.0476
     52 H           0.9380   26.6110   21.3250 H       1  LIG1        0.0476
     53 H           2.3510   23.4520   21.6020 H       1  LIG1        0.0449
     54 H           3.7290   24.3030   22.2740 H       1  LIG1        0.0449
     55 H           3.4210   23.1620   19.4330 H       1  LIG1        0.0572
     56 H           4.4780   22.5650   20.6790 H       1  LIG1        0.0572
     57 H           4.0110   25.4080   18.4010 H       1  LIG1        0.0572
     58 H           5.3810   26.2380   19.0890 H       1  LIG1        0.0572
     59 H           4.2390   26.6510   21.1890 H       1  LIG1        0.0449
     60 H           3.1730   27.1650   19.9020 H       1  LIG1        0.0449
@<TRIPOS>BOND
     1     1     2    1
     2     1    33    1
     3     1    34    1
     4     1    35    1
     5     2     3    1
     6     2    36    1
     7     2    37    1
     8     3     4    1
     9     3    38    1
    10     3    39    1
    11     4     5    1
    12     4    40    1
    13     4    41    1
    14     5     6    1
    15     6     7   ar
    16     6    10   ar
    17     7     8   ar
    18     7    42    1
    19     8     9   ar
    20     9    11   ar
    21     9    43    1
    22    10    11   ar
    23    10    44    1
    24    11    12    1
    25    12    13   ar
    26    12    19   ar
    27    13    14   ar
    28    14    15   ar
    29    15    16   ar
    30    15    19   ar
    31    16    17    1
    32    16    18   ar
    33    17    45    1
    34    17    46    1
    35    17    47    1
    36    18    25   ar
    37    19    20   ar
    38    20    21   ar
    39    20    25   ar
    40    21    22   ar
    41    21    48    1
    42    22    23   ar
    43    22    26    1
    44    23    24   ar
    45    23    49    1
    46    24    25   ar
    47    24    50    1
    48    26    27    1
    49    26    51    1
    50    26    52    1
    51    27    28    1
    52    27    32    1
    53    28    29    1
    54    28    53    1
    55    28    54    1
    56    29    30    1
    57    29    55    1
    58    29    56    1
    59    30    31    1
    60    31    32    1
    61    31    57    1
    62    31    58    1
    63    32    59    1
    64    32    60    1
