@<TRIPOS>MOLECULE
systems/pde2/lig_50107616/lig_50107616.pdb
 60 64 0 0 0
SMALL
GASTEIGER

@<TRIPOS>ATOM
      1 C          -5.6590   26.7370   18.5770 C.3     1  LIG1        0.0364
      2 O          -5.7430   25.3440   18.7730 O.3     1  LIG1       -0.3830
      3 C          -4.5480   24.6750   18.4370 C.3     1  LIG1        0.0476
      4 C          -4.7410   23.1620   18.2220 C.3     1  LIG1       -0.0254
      5 C          -3.3950   22.4710   17.9340 C.3     1  LIG1       -0.0242
      6 C          -2.3790   22.2590   19.0720 C.ar    1  LIG1       -0.0285
      7 C          -1.0750   21.9000   18.7190 C.ar    1  LIG1        0.0308
      8 N          -0.0960   21.6400   19.6220 N.ar    1  LIG1       -0.2623
      9 C          -0.4090   21.7320   20.9380 C.ar    1  LIG1        0.0383
     10 C          -2.6670   22.3650   20.4420 C.ar    1  LIG1       -0.0450
     11 C          -1.6780   22.0990   21.3940 C.ar    1  LIG1        0.0379
     12 C          -2.0080   22.0870   22.8420 C.ar    1  LIG1        0.1705
     13 N          -2.9560   21.3040   23.3160 N.ar    1  LIG1       -0.1284
     14 N          -2.9530   21.3360   24.6930 N.ar    1  LIG1       -0.1272
     15 C          -1.9680   22.1870   25.0440 C.ar    1  LIG1        0.1830
     16 C          -1.4650   22.5800   26.2920 C.ar    1  LIG1        0.0834
     17 C          -1.9850   22.0640   27.6200 C.3     1  LIG1       -0.0187
     18 N          -0.4410   23.4620   26.3970 N.ar    1  LIG1       -0.2467
     19 N          -1.3710   22.7400   23.8950 N.ar    1  LIG1       -0.2721
     20 C          -0.3900   23.6820   23.9640 C.ar    1  LIG1        0.0757
     21 C           0.1480   24.3760   22.8360 C.ar    1  LIG1       -0.0312
     22 C           1.1600   25.3300   23.0180 C.ar    1  LIG1       -0.0313
     23 C           1.6270   25.6100   24.3030 C.ar    1  LIG1       -0.0552
     24 C           1.1020   24.9720   25.4180 C.ar    1  LIG1       -0.0340
     25 C           0.0820   24.0150   25.2710 C.ar    1  LIG1        0.0881
     26 C           1.7590   26.1290   21.8550 C.3     1  LIG1        0.0243
     27 N           2.5760   25.3940   20.8730 N.3     1  LIG1       -0.2938
     28 C           3.1220   24.1200   21.3550 C.3     1  LIG1        0.0228
     29 C           4.0100   23.4550   20.2850 C.3     1  LIG1        0.0604
     30 O           5.0670   24.3270   19.8990 O.3     1  LIG1       -0.3772
     31 C           4.5930   25.5730   19.3960 C.3     1  LIG1        0.0604
     32 C           3.6640   26.2730   20.4140 C.3     1  LIG1        0.0228
     33 H          -6.5850   27.2350   18.8580 H       1  LIG1        0.0523
     34 H          -4.8590   27.1740   19.1750 H       1  LIG1        0.0523
     35 H          -5.4670   26.9760   17.5300 H       1  LIG1        0.0523
     36 H          -3.8030   24.8460   19.2150 H       1  LIG1        0.0560
     37 H          -4.1400   25.1110   17.5240 H       1  LIG1        0.0560
     38 H          -5.3650   23.0040   17.3440 H       1  LIG1        0.0290
     39 H          -5.2880   22.6930   19.0400 H       1  LIG1        0.0290
     40 H          -0.7970   21.8030   17.6800 H       1  LIG1        0.0832
     41 H           0.3790   21.4830   21.6340 H       1  LIG1        0.0837
     42 H          -3.6550   22.6230   20.7890 H       1  LIG1        0.0628
     43 H          -1.1880   21.5780   28.1830 H       1  LIG1        0.0294
     44 H          -2.3850   22.8830   28.2180 H       1  LIG1        0.0294
     45 H          -2.7810   21.3320   27.4770 H       1  LIG1        0.0294
     46 H          -0.2280   24.1970   21.8420 H       1  LIG1        0.0642
     47 H           2.3980   26.3530   24.4490 H       1  LIG1        0.0621
     48 H           1.4530   25.2230   26.4080 H       1  LIG1        0.0639
     49 H           2.3490   26.9440   22.2800 H       1  LIG1        0.0476
     50 H           0.9370   26.6050   21.3200 H       1  LIG1        0.0476
     51 H           2.2970   23.4440   21.5620 H       1  LIG1        0.0449
     52 H           3.6770   24.2510   22.2850 H       1  LIG1        0.0449
     53 H           3.4150   23.1740   19.4140 H       1  LIG1        0.0572
     54 H           4.4260   22.5280   20.6730 H       1  LIG1        0.0572
     55 H           4.0810   25.4260   18.4440 H       1  LIG1        0.0572
     56 H           5.4510   26.2110   19.1820 H       1  LIG1        0.0572
     57 H           4.2660   26.6080   21.2610 H       1  LIG1        0.0449
     58 H           3.2450   27.1720   19.9590 H       1  LIG1        0.0449
     59 H          -2.9010   22.9880   17.1110 H       1  LIG1        0.0314
     60 H          -3.5840   21.5150   17.4460 H       1  LIG1        0.0314
@<TRIPOS>BOND
     1     1     2    1
     2     1    33    1
     3     1    34    1
     4     1    35    1
     5     2     3    1
     6     3     4    1
     7     3    36    1
     8     3    37    1
     9     4     5    1
    10     4    38    1
    11     4    39    1
    12     5     6    1
    13     5    59    1
    14     5    60    1
    15     6     7   ar
    16     6    10   ar
    17     7     8   ar
    18     7    40    1
    19     8     9   ar
    20     9    11   ar
    21     9    41    1
    22    10    11   ar
    23    10    42    1
    24    11    12    1
    25    12    13   ar
    26    12    19   ar
    27    13    14   ar
    28    14    15   ar
    29    15    16   ar
    30    15    19   ar
    31    16    17    1
    32    16    18   ar
    33    17    43    1
    34    17    44    1
    35    17    45    1
    36    18    25   ar
    37    19    20   ar
    38    20    21   ar
    39    20    25   ar
    40    21    22   ar
    41    21    46    1
    42    22    23   ar
    43    22    26    1
    44    23    24   ar
    45    23    47    1
    46    24    25   ar
    47    24    48    1
    48    26    27    1
    49    26    49    1
    50    26    50    1
    51    27    28    1
    52    27    32    1
    53    28    29    1
    54    28    51    1
    55    28    52    1
    56    29    30    1
    57    29    53    1
    58    29    54    1
    59    30    31    1
    60    31    32    1
    61    31    55    1
    62    31    56    1
    63    32    57    1
    64    32    58    1
