@<TRIPOS>MOLECULE
systems/pde2/lig_48022468/lig_48022468.pdb
 48 52 0 0 0
SMALL
GASTEIGER

@<TRIPOS>ATOM
      1 C          -2.3780   22.2610   19.0720 C.ar    1  LIG1       -0.0257
      2 C          -1.0750   21.9000   18.7190 C.ar    1  LIG1       -0.0576
      3 C          -0.0960   21.6390   19.6220 C.ar    1  LIG1       -0.0425
      4 C          -0.4090   21.7310   20.9380 C.ar    1  LIG1        0.0544
      5 C          -2.6670   22.3670   20.4430 C.ar    1  LIG1        0.1355
      6 C          -1.6780   22.0990   21.3940 C.ar    1  LIG1        0.0730
      7 C          -2.0080   22.0870   22.8420 C.ar    1  LIG1        0.1733
      8 N          -2.9560   21.3040   23.3160 N.ar    1  LIG1       -0.1283
      9 N          -2.9530   21.3360   24.6930 N.ar    1  LIG1       -0.1272
     10 C          -1.9680   22.1870   25.0440 C.ar    1  LIG1        0.1830
     11 C          -1.4650   22.5800   26.2920 C.ar    1  LIG1        0.0834
     12 C          -1.9850   22.0640   27.6200 C.3     1  LIG1       -0.0187
     13 N          -0.4410   23.4620   26.3970 N.ar    1  LIG1       -0.2467
     14 N          -1.3710   22.7400   23.8950 N.ar    1  LIG1       -0.2721
     15 C          -0.3900   23.6820   23.9640 C.ar    1  LIG1        0.0757
     16 C           0.1480   24.3760   22.8360 C.ar    1  LIG1       -0.0312
     17 C           1.1600   25.3300   23.0180 C.ar    1  LIG1       -0.0313
     18 C           1.6270   25.6100   24.3030 C.ar    1  LIG1       -0.0552
     19 C           1.1020   24.9720   25.4180 C.ar    1  LIG1       -0.0340
     20 C           0.0820   24.0150   25.2710 C.ar    1  LIG1        0.0881
     21 C           1.7590   26.1290   21.8550 C.3     1  LIG1        0.0243
     22 N           2.5760   25.3940   20.8730 N.3     1  LIG1       -0.2938
     23 C           3.1310   24.1250   21.3580 C.3     1  LIG1        0.0228
     24 C           4.0180   23.4600   20.2880 C.3     1  LIG1        0.0604
     25 O           5.0680   24.3360   19.8940 O.3     1  LIG1       -0.3772
     26 C           4.5860   25.5770   19.3870 C.3     1  LIG1        0.0604
     27 C           3.6570   26.2770   20.4050 C.3     1  LIG1        0.0228
     28 H          -0.7970   21.8030   17.6800 H       1  LIG1        0.0619
     29 CL          0.8520   21.3290   22.0520 Cl      1  LIG1       -0.0827
     30 F          -3.8880   22.6860   20.8710 F       1  LIG1       -0.2047
     31 H          -1.1880   21.5780   28.1830 H       1  LIG1        0.0294
     32 H          -2.3850   22.8830   28.2180 H       1  LIG1        0.0294
     33 H          -2.7810   21.3320   27.4770 H       1  LIG1        0.0294
     34 H          -0.2280   24.1970   21.8420 H       1  LIG1        0.0642
     35 H           2.3980   26.3530   24.4490 H       1  LIG1        0.0621
     36 H           1.4530   25.2230   26.4080 H       1  LIG1        0.0639
     37 H           2.3490   26.9440   22.2800 H       1  LIG1        0.0476
     38 H           0.9370   26.6050   21.3200 H       1  LIG1        0.0476
     39 H           2.3110   23.4460   21.5720 H       1  LIG1        0.0449
     40 H           3.6890   24.2630   22.2850 H       1  LIG1        0.0449
     41 H           3.4210   23.1720   19.4200 H       1  LIG1        0.0572
     42 H           4.4410   22.5370   20.6780 H       1  LIG1        0.0572
     43 H           4.0710   25.4230   18.4380 H       1  LIG1        0.0572
     44 H           5.4400   26.2190   19.1670 H       1  LIG1        0.0572
     45 H           4.2600   26.6190   21.2490 H       1  LIG1        0.0449
     46 H           3.2310   27.1710   19.9490 H       1  LIG1        0.0449
     47 H          -3.1140   22.4450   18.3030 H       1  LIG1        0.0646
     48 H           0.8930   21.3680   19.2840 H       1  LIG1        0.0632
@<TRIPOS>BOND
     1     1     2   ar
     2     1     5   ar
     3     1    47    1
     4     2     3   ar
     5     2    28    1
     6     3     4   ar
     7     3    48    1
     8     4     6   ar
     9     4    29    1
    10     5     6   ar
    11     5    30    1
    12     6     7    1
    13     7     8   ar
    14     7    14   ar
    15     8     9   ar
    16     9    10   ar
    17    10    11   ar
    18    10    14   ar
    19    11    12    1
    20    11    13   ar
    21    12    31    1
    22    12    32    1
    23    12    33    1
    24    13    20   ar
    25    14    15   ar
    26    15    16   ar
    27    15    20   ar
    28    16    17   ar
    29    16    34    1
    30    17    18   ar
    31    17    21    1
    32    18    19   ar
    33    18    35    1
    34    19    20   ar
    35    19    36    1
    36    21    22    1
    37    21    37    1
    38    21    38    1
    39    22    23    1
    40    22    27    1
    41    23    24    1
    42    23    39    1
    43    23    40    1
    44    24    25    1
    45    24    41    1
    46    24    42    1
    47    25    26    1
    48    26    27    1
    49    26    43    1
    50    26    44    1
    51    27    45    1
    52    27    46    1
