@<TRIPOS>MOLECULE
systems/pde2/lig_49396360/lig_49396360.pdb
 57 61 0 0 0
SMALL
GASTEIGER

@<TRIPOS>ATOM
      1 C          -5.6840   25.3270   18.8210 C.3     1  LIG1       -0.0622
      2 C          -4.3960   24.6090   18.3840 C.3     1  LIG1       -0.0215
      3 C          -4.5460   23.0770   18.3220 C.3     1  LIG1        0.0894
      4 O          -3.2900   22.4520   18.0510 O.3     1  LIG1       -0.4904
      5 C          -2.3780   22.2610   19.0720 C.ar    1  LIG1        0.1392
      6 C          -1.0750   21.9000   18.7190 C.ar    1  LIG1        0.0692
      7 N          -0.0960   21.6390   19.6220 N.ar    1  LIG1       -0.2589
      8 C          -0.4090   21.7310   20.9380 C.ar    1  LIG1        0.0385
      9 C          -2.6670   22.3670   20.4430 C.ar    1  LIG1       -0.0063
     10 C          -1.6780   22.0990   21.3940 C.ar    1  LIG1        0.0411
     11 C          -2.0080   22.0870   22.8420 C.ar    1  LIG1        0.1707
     12 N          -2.9560   21.3040   23.3160 N.ar    1  LIG1       -0.1284
     13 N          -2.9530   21.3360   24.6930 N.ar    1  LIG1       -0.1272
     14 C          -1.9680   22.1870   25.0440 C.ar    1  LIG1        0.1830
     15 C          -1.4650   22.5800   26.2920 C.ar    1  LIG1        0.0834
     16 C          -1.9850   22.0640   27.6200 C.3     1  LIG1       -0.0187
     17 N          -0.4410   23.4620   26.3970 N.ar    1  LIG1       -0.2467
     18 N          -1.3710   22.7400   23.8950 N.ar    1  LIG1       -0.2721
     19 C          -0.3900   23.6820   23.9640 C.ar    1  LIG1        0.0757
     20 C           0.1480   24.3760   22.8360 C.ar    1  LIG1       -0.0312
     21 C           1.1600   25.3300   23.0180 C.ar    1  LIG1       -0.0313
     22 C           1.6270   25.6100   24.3030 C.ar    1  LIG1       -0.0552
     23 C           1.1020   24.9720   25.4180 C.ar    1  LIG1       -0.0340
     24 C           0.0820   24.0150   25.2710 C.ar    1  LIG1        0.0881
     25 C           1.7590   26.1290   21.8550 C.3     1  LIG1        0.0243
     26 N           2.5760   25.3940   20.8730 N.3     1  LIG1       -0.2938
     27 C           3.2270   24.1860   21.3930 C.3     1  LIG1        0.0228
     28 C           4.1060   23.5210   20.3160 C.3     1  LIG1        0.0604
     29 O           5.0830   24.4350   19.8320 O.3     1  LIG1       -0.3772
     30 C           4.5050   25.6190   19.2890 C.3     1  LIG1        0.0604
     31 C           3.5800   26.3140   20.3140 C.3     1  LIG1        0.0228
     32 H          -6.4760   25.1230   18.1000 H       1  LIG1        0.0231
     33 H          -6.0270   24.9200   19.7730 H       1  LIG1        0.0231
     34 H          -3.5830   24.8740   19.0610 H       1  LIG1        0.0295
     35 H          -4.1010   24.9750   17.3990 H       1  LIG1        0.0295
     36 H          -5.2060   22.8180   17.4970 H       1  LIG1        0.0696
     37 H          -5.0350   22.6720   19.2080 H       1  LIG1        0.0696
     38 H          -0.7970   21.8030   17.6800 H       1  LIG1        0.0867
     39 H           0.3780   21.4800   21.6340 H       1  LIG1        0.0837
     40 H          -3.6550   22.6250   20.7890 H       1  LIG1        0.0662
     41 H          -1.1880   21.5780   28.1830 H       1  LIG1        0.0294
     42 H          -2.3850   22.8830   28.2180 H       1  LIG1        0.0294
     43 H          -2.7810   21.3320   27.4770 H       1  LIG1        0.0294
     44 H          -0.2280   24.1970   21.8420 H       1  LIG1        0.0642
     45 H           2.3980   26.3530   24.4490 H       1  LIG1        0.0621
     46 H           1.4530   25.2230   26.4080 H       1  LIG1        0.0639
     47 H           2.3490   26.9440   22.2800 H       1  LIG1        0.0476
     48 H           0.9370   26.6050   21.3200 H       1  LIG1        0.0476
     49 H           2.4600   23.4720   21.6760 H       1  LIG1        0.0449
     50 H           3.8150   24.4040   22.2850 H       1  LIG1        0.0449
     51 H           3.4910   23.1540   19.4920 H       1  LIG1        0.0572
     52 H           4.6010   22.6450   20.7310 H       1  LIG1        0.0572
     53 H           3.9590   25.3870   18.3730 H       1  LIG1        0.0572
     54 H           5.3080   26.2970   18.9980 H       1  LIG1        0.0572
     55 H           4.1980   26.7330   21.1110 H       1  LIG1        0.0449
     56 H           3.0820   27.1570   19.8350 H       1  LIG1        0.0449
     57 H          -5.5130   26.4000   18.9060 H       1  LIG1        0.0231
@<TRIPOS>BOND
     1     1     2    1
     2     1    32    1
     3     1    33    1
     4     1    57    1
     5     2     3    1
     6     2    34    1
     7     2    35    1
     8     3     4    1
     9     3    36    1
    10     3    37    1
    11     4     5    1
    12     5     6   ar
    13     5     9   ar
    14     6     7   ar
    15     6    38    1
    16     7     8   ar
    17     8    10   ar
    18     8    39    1
    19     9    10   ar
    20     9    40    1
    21    10    11    1
    22    11    12   ar
    23    11    18   ar
    24    12    13   ar
    25    13    14   ar
    26    14    15   ar
    27    14    18   ar
    28    15    16    1
    29    15    17   ar
    30    16    41    1
    31    16    42    1
    32    16    43    1
    33    17    24   ar
    34    18    19   ar
    35    19    20   ar
    36    19    24   ar
    37    20    21   ar
    38    20    44    1
    39    21    22   ar
    40    21    25    1
    41    22    23   ar
    42    22    45    1
    43    23    24   ar
    44    23    46    1
    45    25    26    1
    46    25    47    1
    47    25    48    1
    48    26    27    1
    49    26    31    1
    50    27    28    1
    51    27    49    1
    52    27    50    1
    53    28    29    1
    54    28    51    1
    55    28    52    1
    56    29    30    1
    57    30    31    1
    58    30    53    1
    59    30    54    1
    60    31    55    1
    61    31    56    1
