@<TRIPOS>MOLECULE
systems/pde2/lig_48271249/lig_48271249.pdb
 51 55 0 0 0
SMALL
GASTEIGER

@<TRIPOS>ATOM
      1 C          -4.5860   22.9790   18.3390 C.3     1  LIG1        0.0789
      2 O          -3.2900   22.4520   18.0510 O.3     1  LIG1       -0.4936
      3 C          -2.3780   22.2610   19.0720 C.ar    1  LIG1        0.1388
      4 C          -1.0750   21.9000   18.7190 C.ar    1  LIG1        0.0692
      5 N          -0.0960   21.6390   19.6220 N.ar    1  LIG1       -0.2589
      6 C          -0.4090   21.7310   20.9380 C.ar    1  LIG1        0.0385
      7 C          -2.6670   22.3670   20.4430 C.ar    1  LIG1       -0.0063
      8 C          -1.6780   22.0990   21.3940 C.ar    1  LIG1        0.0411
      9 C          -2.0080   22.0870   22.8420 C.ar    1  LIG1        0.1707
     10 N          -2.9560   21.3040   23.3160 N.ar    1  LIG1       -0.1284
     11 N          -2.9530   21.3360   24.6930 N.ar    1  LIG1       -0.1272
     12 C          -1.9680   22.1870   25.0440 C.ar    1  LIG1        0.1830
     13 C          -1.4650   22.5800   26.2920 C.ar    1  LIG1        0.0834
     14 C          -1.9850   22.0640   27.6200 C.3     1  LIG1       -0.0187
     15 N          -0.4410   23.4620   26.3970 N.ar    1  LIG1       -0.2467
     16 N          -1.3710   22.7400   23.8950 N.ar    1  LIG1       -0.2721
     17 C          -0.3900   23.6820   23.9640 C.ar    1  LIG1        0.0757
     18 C           0.1480   24.3760   22.8360 C.ar    1  LIG1       -0.0312
     19 C           1.1600   25.3300   23.0180 C.ar    1  LIG1       -0.0313
     20 C           1.6270   25.6100   24.3030 C.ar    1  LIG1       -0.0552
     21 C           1.1020   24.9720   25.4180 C.ar    1  LIG1       -0.0340
     22 C           0.0820   24.0150   25.2710 C.ar    1  LIG1        0.0881
     23 C           1.7590   26.1290   21.8550 C.3     1  LIG1        0.0243
     24 N           2.5760   25.3940   20.8730 N.3     1  LIG1       -0.2938
     25 C           3.1990   24.1670   21.3830 C.3     1  LIG1        0.0228
     26 C           4.0800   23.5020   20.3080 C.3     1  LIG1        0.0604
     27 O           5.0800   24.4060   19.8510 O.3     1  LIG1       -0.3772
     28 C           4.5300   25.6070   19.3180 C.3     1  LIG1        0.0604
     29 C           3.6040   26.3030   20.3410 C.3     1  LIG1        0.0228
     30 H          -5.1530   22.9350   17.4110 H       1  LIG1        0.0660
     31 H          -5.1470   22.3580   19.0380 H       1  LIG1        0.0660
     32 H          -0.7970   21.8030   17.6800 H       1  LIG1        0.0867
     33 H           0.3780   21.4800   21.6340 H       1  LIG1        0.0837
     34 H          -3.6550   22.6250   20.7890 H       1  LIG1        0.0662
     35 H          -1.1880   21.5780   28.1830 H       1  LIG1        0.0294
     36 H          -2.3850   22.8830   28.2180 H       1  LIG1        0.0294
     37 H          -2.7810   21.3320   27.4770 H       1  LIG1        0.0294
     38 H          -0.2280   24.1970   21.8420 H       1  LIG1        0.0642
     39 H           2.3980   26.3530   24.4490 H       1  LIG1        0.0621
     40 H           1.4530   25.2230   26.4080 H       1  LIG1        0.0639
     41 H           2.3490   26.9440   22.2800 H       1  LIG1        0.0476
     42 H           0.9370   26.6050   21.3200 H       1  LIG1        0.0476
     43 H           2.4150   23.4630   21.6460 H       1  LIG1        0.0449
     44 H           3.7780   24.3610   22.2870 H       1  LIG1        0.0449
     45 H           3.4700   23.1590   19.4710 H       1  LIG1        0.0572
     46 H           4.5540   22.6110   20.7160 H       1  LIG1        0.0572
     47 H           3.9930   25.3990   18.3910 H       1  LIG1        0.0572
     48 H           5.3490   26.2750   19.0490 H       1  LIG1        0.0572
     49 H           4.2180   26.7000   21.1530 H       1  LIG1        0.0449
     50 H           3.1270   27.1630   19.8680 H       1  LIG1        0.0449
     51 H          -4.5160   24.0050   18.7020 H       1  LIG1        0.0660
@<TRIPOS>BOND
     1     1     2    1
     2     1    30    1
     3     1    31    1
     4     1    51    1
     5     2     3    1
     6     3     4   ar
     7     3     7   ar
     8     4     5   ar
     9     4    32    1
    10     5     6   ar
    11     6     8   ar
    12     6    33    1
    13     7     8   ar
    14     7    34    1
    15     8     9    1
    16     9    10   ar
    17     9    16   ar
    18    10    11   ar
    19    11    12   ar
    20    12    13   ar
    21    12    16   ar
    22    13    14    1
    23    13    15   ar
    24    14    35    1
    25    14    36    1
    26    14    37    1
    27    15    22   ar
    28    16    17   ar
    29    17    18   ar
    30    17    22   ar
    31    18    19   ar
    32    18    38    1
    33    19    20   ar
    34    19    23    1
    35    20    21   ar
    36    20    39    1
    37    21    22   ar
    38    21    40    1
    39    23    24    1
    40    23    41    1
    41    23    42    1
    42    24    25    1
    43    24    29    1
    44    25    26    1
    45    25    43    1
    46    25    44    1
    47    26    27    1
    48    26    45    1
    49    26    46    1
    50    27    28    1
    51    28    29    1
    52    28    47    1
    53    28    48    1
    54    29    49    1
    55    29    50    1
