@<TRIPOS>MOLECULE
systems/pde2/lig_49175789/lig_49175789.pdb
 61 65 0 0 0
SMALL
GASTEIGER

@<TRIPOS>ATOM
      1 C          -5.6910   26.7810   18.5760 C.3     1  LIG1       -0.0652
      2 C          -5.7580   25.2660   18.8230 C.3     1  LIG1       -0.0528
      3 C          -4.4140   24.5640   18.5640 C.3     1  LIG1       -0.0189
      4 C          -4.5580   23.0480   18.3270 C.3     1  LIG1        0.0896
      5 O          -3.2900   22.4520   18.0510 O.3     1  LIG1       -0.4919
      6 C          -2.3780   22.2610   19.0720 C.ar    1  LIG1        0.1213
      7 C          -1.0750   21.9000   18.7190 C.ar    1  LIG1       -0.0185
      8 C          -0.0960   21.6390   19.6220 C.ar    1  LIG1       -0.0392
      9 C          -0.4090   21.7310   20.9380 C.ar    1  LIG1        0.0519
     10 C          -2.6670   22.3670   20.4430 C.ar    1  LIG1       -0.0078
     11 C          -1.6780   22.0990   21.3940 C.ar    1  LIG1        0.0413
     12 C          -2.0080   22.0870   22.8420 C.ar    1  LIG1        0.1706
     13 N          -2.9560   21.3040   23.3160 N.ar    1  LIG1       -0.1284
     14 N          -2.9530   21.3360   24.6930 N.ar    1  LIG1       -0.1272
     15 C          -1.9680   22.1870   25.0440 C.ar    1  LIG1        0.1830
     16 C          -1.4650   22.5800   26.2920 C.ar    1  LIG1        0.0834
     17 C          -1.9850   22.0640   27.6200 C.3     1  LIG1       -0.0187
     18 N          -0.4410   23.4620   26.3970 N.ar    1  LIG1       -0.2467
     19 N          -1.3710   22.7400   23.8950 N.ar    1  LIG1       -0.2721
     20 C          -0.3900   23.6820   23.9640 C.ar    1  LIG1        0.0757
     21 C           0.1480   24.3760   22.8360 C.ar    1  LIG1       -0.0312
     22 C           1.1600   25.3300   23.0180 C.ar    1  LIG1       -0.0313
     23 C           1.6270   25.6100   24.3030 C.ar    1  LIG1       -0.0552
     24 C           1.1020   24.9720   25.4180 C.ar    1  LIG1       -0.0340
     25 C           0.0820   24.0150   25.2710 C.ar    1  LIG1        0.0881
     26 C           1.7590   26.1290   21.8550 C.3     1  LIG1        0.0243
     27 N           2.5760   25.3940   20.8730 N.3     1  LIG1       -0.2938
     28 C           3.1380   24.1300   21.3610 C.3     1  LIG1        0.0228
     29 C           4.0240   23.4640   20.2900 C.3     1  LIG1        0.0604
     30 O           5.0700   24.3430   19.8890 O.3     1  LIG1       -0.3772
     31 C           4.5800   25.5810   19.3800 C.3     1  LIG1        0.0604
     32 C           3.6520   26.2800   20.3990 C.3     1  LIG1        0.0228
     33 H          -6.6470   27.2600   18.7810 H       1  LIG1        0.0230
     34 H          -4.9450   27.2540   19.2160 H       1  LIG1        0.0230
     35 H          -5.4340   26.9990   17.5390 H       1  LIG1        0.0230
     36 H          -6.5250   24.8330   18.1790 H       1  LIG1        0.0264
     37 H          -6.0800   25.0800   19.8480 H       1  LIG1        0.0264
     38 H          -3.7410   24.7450   19.4030 H       1  LIG1        0.0298
     39 H          -3.9390   25.0130   17.6910 H       1  LIG1        0.0298
     40 H          -5.1780   22.8830   17.4480 H       1  LIG1        0.0696
     41 H          -5.0900   22.5500   19.1390 H       1  LIG1        0.0696
     42 H          -0.7970   21.8030   17.6800 H       1  LIG1        0.0654
     43 CL          0.8520   21.3290   22.0520 Cl      1  LIG1       -0.0828
     44 H          -3.6550   22.6250   20.7890 H       1  LIG1        0.0662
     45 H          -1.1880   21.5780   28.1830 H       1  LIG1        0.0294
     46 H          -2.3850   22.8830   28.2180 H       1  LIG1        0.0294
     47 H          -2.7810   21.3320   27.4770 H       1  LIG1        0.0294
     48 H          -0.2280   24.1970   21.8420 H       1  LIG1        0.0642
     49 H           2.3980   26.3530   24.4490 H       1  LIG1        0.0621
     50 H           1.4530   25.2230   26.4080 H       1  LIG1        0.0639
     51 H           2.3490   26.9440   22.2800 H       1  LIG1        0.0476
     52 H           0.9370   26.6050   21.3200 H       1  LIG1        0.0476
     53 H           2.3210   23.4470   21.5800 H       1  LIG1        0.0449
     54 H           3.6980   24.2730   22.2860 H       1  LIG1        0.0449
     55 H           3.4260   23.1710   19.4260 H       1  LIG1        0.0572
     56 H           4.4530   22.5440   20.6830 H       1  LIG1        0.0572
     57 H           4.0630   25.4210   18.4330 H       1  LIG1        0.0572
     58 H           5.4300   26.2250   19.1540 H       1  LIG1        0.0572
     59 H           4.2560   26.6280   21.2390 H       1  LIG1        0.0449
     60 H           3.2210   27.1710   19.9400 H       1  LIG1        0.0449
     61 H           0.8930   21.3680   19.2840 H       1  LIG1        0.0633
@<TRIPOS>BOND
     1     1     2    1
     2     1    33    1
     3     1    34    1
     4     1    35    1
     5     2     3    1
     6     2    36    1
     7     2    37    1
     8     3     4    1
     9     3    38    1
    10     3    39    1
    11     4     5    1
    12     4    40    1
    13     4    41    1
    14     5     6    1
    15     6     7   ar
    16     6    10   ar
    17     7     8   ar
    18     7    42    1
    19     8     9   ar
    20     8    61    1
    21     9    11   ar
    22     9    43    1
    23    10    11   ar
    24    10    44    1
    25    11    12    1
    26    12    13   ar
    27    12    19   ar
    28    13    14   ar
    29    14    15   ar
    30    15    16   ar
    31    15    19   ar
    32    16    17    1
    33    16    18   ar
    34    17    45    1
    35    17    46    1
    36    17    47    1
    37    18    25   ar
    38    19    20   ar
    39    20    21   ar
    40    20    25   ar
    41    21    22   ar
    42    21    48    1
    43    22    23   ar
    44    22    26    1
    45    23    24   ar
    46    23    49    1
    47    24    25   ar
    48    24    50    1
    49    26    27    1
    50    26    51    1
    51    26    52    1
    52    27    28    1
    53    27    32    1
    54    28    29    1
    55    28    53    1
    56    28    54    1
    57    29    30    1
    58    29    55    1
    59    29    56    1
    60    30    31    1
    61    31    32    1
    62    31    57    1
    63    31    58    1
    64    32    59    1
    65    32    60    1
