@<TRIPOS>MOLECULE
systems/pde2/lig_49582468/lig_49582468.pdb
 57 61 0 0 0
SMALL
GASTEIGER

@<TRIPOS>ATOM
      1 C          -5.7500   25.1800   18.8880 C.3     1  LIG1       -0.0416
      2 C          -4.4580   24.4770   18.4380 C.3     1  LIG1        0.0453
      3 O          -4.6310   23.0980   18.2000 O.3     1  LIG1       -0.3754
      4 C          -3.3940   22.4740   17.9340 C.3     1  LIG1        0.0741
      5 C          -2.3780   22.2610   19.0720 C.ar    1  LIG1       -0.0032
      6 C          -1.0750   21.9000   18.7190 C.ar    1  LIG1        0.0330
      7 N          -0.0960   21.6390   19.6220 N.ar    1  LIG1       -0.2622
      8 C          -0.4090   21.7310   20.9380 C.ar    1  LIG1        0.0383
      9 C          -2.6670   22.3670   20.4430 C.ar    1  LIG1       -0.0428
     10 C          -1.6780   22.0990   21.3940 C.ar    1  LIG1        0.0380
     11 C          -2.0080   22.0870   22.8420 C.ar    1  LIG1        0.1705
     12 N          -2.9560   21.3040   23.3160 N.ar    1  LIG1       -0.1284
     13 N          -2.9530   21.3360   24.6930 N.ar    1  LIG1       -0.1272
     14 C          -1.9680   22.1870   25.0440 C.ar    1  LIG1        0.1830
     15 C          -1.4650   22.5800   26.2920 C.ar    1  LIG1        0.0834
     16 C          -1.9850   22.0640   27.6200 C.3     1  LIG1       -0.0187
     17 N          -0.4410   23.4620   26.3970 N.ar    1  LIG1       -0.2467
     18 N          -1.3710   22.7400   23.8950 N.ar    1  LIG1       -0.2721
     19 C          -0.3900   23.6820   23.9640 C.ar    1  LIG1        0.0757
     20 C           0.1480   24.3760   22.8360 C.ar    1  LIG1       -0.0312
     21 C           1.1600   25.3300   23.0180 C.ar    1  LIG1       -0.0313
     22 C           1.6270   25.6100   24.3030 C.ar    1  LIG1       -0.0552
     23 C           1.1020   24.9720   25.4180 C.ar    1  LIG1       -0.0340
     24 C           0.0820   24.0150   25.2710 C.ar    1  LIG1        0.0881
     25 C           1.7590   26.1290   21.8550 C.3     1  LIG1        0.0243
     26 N           2.5760   25.3940   20.8730 N.3     1  LIG1       -0.2938
     27 C           3.2010   24.1690   21.3840 C.3     1  LIG1        0.0228
     28 C           4.0820   23.5040   20.3090 C.3     1  LIG1        0.0604
     29 O           5.0800   24.4080   19.8490 O.3     1  LIG1       -0.3772
     30 C           4.5280   25.6090   19.3160 C.3     1  LIG1        0.0604
     31 C           3.6020   26.3040   20.3390 C.3     1  LIG1        0.0228
     32 H          -6.5350   25.0030   18.1520 H       1  LIG1        0.0252
     33 H          -6.1030   24.7400   19.8210 H       1  LIG1        0.0252
     34 H          -3.6800   24.6280   19.1870 H       1  LIG1        0.0557
     35 H          -4.0950   24.9490   17.5240 H       1  LIG1        0.0557
     36 H          -0.7970   21.8030   17.6800 H       1  LIG1        0.0833
     37 H           0.3780   21.4800   21.6340 H       1  LIG1        0.0837
     38 H          -3.6550   22.6250   20.7890 H       1  LIG1        0.0629
     39 H          -1.1880   21.5780   28.1830 H       1  LIG1        0.0294
     40 H          -2.3850   22.8830   28.2180 H       1  LIG1        0.0294
     41 H          -2.7810   21.3320   27.4770 H       1  LIG1        0.0294
     42 H          -0.2280   24.1970   21.8420 H       1  LIG1        0.0642
     43 H           2.3980   26.3530   24.4490 H       1  LIG1        0.0621
     44 H           1.4530   25.2230   26.4080 H       1  LIG1        0.0639
     45 H           2.3490   26.9440   22.2800 H       1  LIG1        0.0476
     46 H           0.9370   26.6050   21.3200 H       1  LIG1        0.0476
     47 H           2.4190   23.4630   21.6490 H       1  LIG1        0.0449
     48 H           3.7820   24.3640   22.2870 H       1  LIG1        0.0449
     49 H           3.4710   23.1590   19.4720 H       1  LIG1        0.0572
     50 H           4.5580   22.6140   20.7180 H       1  LIG1        0.0572
     51 H           3.9900   25.3980   18.3900 H       1  LIG1        0.0572
     52 H           5.3450   26.2770   19.0440 H       1  LIG1        0.0572
     53 H           4.2160   26.7030   21.1490 H       1  LIG1        0.0449
     54 H           3.1230   27.1620   19.8650 H       1  LIG1        0.0449
     55 H          -2.9020   22.9980   17.1150 H       1  LIG1        0.0610
     56 H          -3.5780   21.5200   17.4400 H       1  LIG1        0.0610
     57 H          -5.5790   26.2490   19.0120 H       1  LIG1        0.0252
@<TRIPOS>BOND
     1     1     2    1
     2     1    32    1
     3     1    33    1
     4     1    57    1
     5     2     3    1
     6     2    34    1
     7     2    35    1
     8     3     4    1
     9     4     5    1
    10     4    55    1
    11     4    56    1
    12     5     6   ar
    13     5     9   ar
    14     6     7   ar
    15     6    36    1
    16     7     8   ar
    17     8    10   ar
    18     8    37    1
    19     9    10   ar
    20     9    38    1
    21    10    11    1
    22    11    12   ar
    23    11    18   ar
    24    12    13   ar
    25    13    14   ar
    26    14    15   ar
    27    14    18   ar
    28    15    16    1
    29    15    17   ar
    30    16    39    1
    31    16    40    1
    32    16    41    1
    33    17    24   ar
    34    18    19   ar
    35    19    20   ar
    36    19    24   ar
    37    20    21   ar
    38    20    42    1
    39    21    22   ar
    40    21    25    1
    41    22    23   ar
    42    22    43    1
    43    23    24   ar
    44    23    44    1
    45    25    26    1
    46    25    45    1
    47    25    46    1
    48    26    27    1
    49    26    31    1
    50    27    28    1
    51    27    47    1
    52    27    48    1
    53    28    29    1
    54    28    49    1
    55    28    50    1
    56    29    30    1
    57    30    31    1
    58    30    51    1
    59    30    52    1
    60    31    53    1
    61    31    54    1
