@<TRIPOS>MOLECULE
systems/pde2/lig_48009208/lig_48009208.pdb
 48 52 0 0 0
SMALL
GASTEIGER

@<TRIPOS>ATOM
      1 H          -3.0910   22.4110   18.2740 H       1  LIG1        0.0646
      2 C          -2.3780   22.2610   19.0720 C.ar    1  LIG1       -0.0257
      3 C          -1.0750   21.9000   18.7190 C.ar    1  LIG1        0.1248
      4 C          -0.0960   21.6390   19.6220 C.ar    1  LIG1       -0.0074
      5 C          -0.4090   21.7310   20.9380 C.ar    1  LIG1        0.0544
      6 C          -2.6670   22.3670   20.4430 C.ar    1  LIG1       -0.0469
      7 C          -1.6780   22.0990   21.3940 C.ar    1  LIG1        0.0381
      8 C          -2.0080   22.0870   22.8420 C.ar    1  LIG1        0.1705
      9 N          -2.9560   21.3040   23.3160 N.ar    1  LIG1       -0.1284
     10 N          -2.9530   21.3360   24.6930 N.ar    1  LIG1       -0.1272
     11 C          -1.9680   22.1870   25.0440 C.ar    1  LIG1        0.1830
     12 C          -1.4650   22.5800   26.2920 C.ar    1  LIG1        0.0834
     13 C          -1.9850   22.0640   27.6200 C.3     1  LIG1       -0.0187
     14 N          -0.4410   23.4620   26.3970 N.ar    1  LIG1       -0.2467
     15 N          -1.3710   22.7400   23.8950 N.ar    1  LIG1       -0.2721
     16 C          -0.3900   23.6820   23.9640 C.ar    1  LIG1        0.0757
     17 C           0.1480   24.3760   22.8360 C.ar    1  LIG1       -0.0312
     18 C           1.1600   25.3300   23.0180 C.ar    1  LIG1       -0.0313
     19 C           1.6270   25.6100   24.3030 C.ar    1  LIG1       -0.0552
     20 C           1.1020   24.9720   25.4180 C.ar    1  LIG1       -0.0340
     21 C           0.0820   24.0150   25.2710 C.ar    1  LIG1        0.0881
     22 C           1.7590   26.1290   21.8550 C.3     1  LIG1        0.0243
     23 N           2.5760   25.3940   20.8730 N.3     1  LIG1       -0.2938
     24 C           3.2070   24.1730   21.3860 C.3     1  LIG1        0.0228
     25 C           4.0880   23.5080   20.3100 C.3     1  LIG1        0.0604
     26 O           5.0810   24.4150   19.8450 O.3     1  LIG1       -0.3772
     27 C           4.5220   25.6110   19.3090 C.3     1  LIG1        0.0604
     28 C           3.5970   26.3070   20.3330 C.3     1  LIG1        0.0228
     29 F          -0.7320   21.7810   17.4370 F       1  LIG1       -0.2054
     30 CL          0.8520   21.3290   22.0520 Cl      1  LIG1       -0.0827
     31 H          -3.6570   22.6260   20.7900 H       1  LIG1        0.0626
     32 H          -1.1880   21.5780   28.1830 H       1  LIG1        0.0294
     33 H          -2.3850   22.8830   28.2180 H       1  LIG1        0.0294
     34 H          -2.7810   21.3320   27.4770 H       1  LIG1        0.0294
     35 H          -0.2280   24.1970   21.8420 H       1  LIG1        0.0642
     36 H           2.3980   26.3530   24.4490 H       1  LIG1        0.0621
     37 H           1.4530   25.2230   26.4080 H       1  LIG1        0.0639
     38 H           2.3490   26.9440   22.2800 H       1  LIG1        0.0476
     39 H           0.9370   26.6050   21.3200 H       1  LIG1        0.0476
     40 H           2.4280   23.4650   21.6550 H       1  LIG1        0.0449
     41 H           3.7900   24.3730   22.2860 H       1  LIG1        0.0449
     42 H           3.4760   23.1580   19.4770 H       1  LIG1        0.0572
     43 H           4.5680   22.6210   20.7210 H       1  LIG1        0.0572
     44 H           3.9830   25.3950   18.3860 H       1  LIG1        0.0572
     45 H           5.3360   26.2820   19.0340 H       1  LIG1        0.0572
     46 H           4.2120   26.7100   21.1400 H       1  LIG1        0.0449
     47 H           3.1140   27.1610   19.8580 H       1  LIG1        0.0449
     48 H           0.8930   21.3680   19.2840 H       1  LIG1        0.0661
@<TRIPOS>BOND
     1     1     2    1
     2     2     3   ar
     3     2     6   ar
     4     3     4   ar
     5     3    29    1
     6     4     5   ar
     7     4    48    1
     8     5     7   ar
     9     5    30    1
    10     6     7   ar
    11     6    31    1
    12     7     8    1
    13     8     9   ar
    14     8    15   ar
    15     9    10   ar
    16    10    11   ar
    17    11    12   ar
    18    11    15   ar
    19    12    13    1
    20    12    14   ar
    21    13    32    1
    22    13    33    1
    23    13    34    1
    24    14    21   ar
    25    15    16   ar
    26    16    17   ar
    27    16    21   ar
    28    17    18   ar
    29    17    35    1
    30    18    19   ar
    31    18    22    1
    32    19    20   ar
    33    19    36    1
    34    20    21   ar
    35    20    37    1
    36    22    23    1
    37    22    38    1
    38    22    39    1
    39    23    24    1
    40    23    28    1
    41    24    25    1
    42    24    40    1
    43    24    41    1
    44    25    26    1
    45    25    42    1
    46    25    43    1
    47    26    27    1
    48    27    28    1
    49    27    44    1
    50    27    45    1
    51    28    46    1
    52    28    47    1
