@<TRIPOS>MOLECULE
systems/pde2/lig_49220548/lig_49220548.pdb
 58 62 0 0 0
SMALL
GASTEIGER

@<TRIPOS>ATOM
      1 C          -5.6590   25.3640   18.7700 C.3     1  LIG1       -0.0622
      2 C          -4.3520   24.6210   18.4450 C.3     1  LIG1       -0.0215
      3 C          -4.5370   23.0970   18.3170 C.3     1  LIG1        0.0893
      4 O          -3.2900   22.4520   18.0510 O.3     1  LIG1       -0.4920
      5 C          -2.3780   22.2610   19.0720 C.ar    1  LIG1        0.1213
      6 C          -1.0750   21.9000   18.7190 C.ar    1  LIG1       -0.0185
      7 C          -0.0960   21.6390   19.6220 C.ar    1  LIG1       -0.0392
      8 C          -0.4090   21.7310   20.9380 C.ar    1  LIG1        0.0519
      9 C          -2.6670   22.3670   20.4430 C.ar    1  LIG1       -0.0078
     10 C          -1.6780   22.0990   21.3940 C.ar    1  LIG1        0.0413
     11 C          -2.0080   22.0870   22.8420 C.ar    1  LIG1        0.1706
     12 N          -2.9560   21.3040   23.3160 N.ar    1  LIG1       -0.1284
     13 N          -2.9530   21.3360   24.6930 N.ar    1  LIG1       -0.1272
     14 C          -1.9680   22.1870   25.0440 C.ar    1  LIG1        0.1830
     15 C          -1.4650   22.5800   26.2920 C.ar    1  LIG1        0.0834
     16 C          -1.9850   22.0640   27.6200 C.3     1  LIG1       -0.0187
     17 N          -0.4410   23.4620   26.3970 N.ar    1  LIG1       -0.2467
     18 N          -1.3710   22.7400   23.8950 N.ar    1  LIG1       -0.2721
     19 C          -0.3900   23.6820   23.9640 C.ar    1  LIG1        0.0757
     20 C           0.1480   24.3760   22.8360 C.ar    1  LIG1       -0.0312
     21 C           1.1600   25.3300   23.0180 C.ar    1  LIG1       -0.0313
     22 C           1.6270   25.6100   24.3030 C.ar    1  LIG1       -0.0552
     23 C           1.1020   24.9720   25.4180 C.ar    1  LIG1       -0.0340
     24 C           0.0820   24.0150   25.2710 C.ar    1  LIG1        0.0881
     25 C           1.7590   26.1290   21.8550 C.3     1  LIG1        0.0243
     26 N           2.5760   25.3940   20.8730 N.3     1  LIG1       -0.2938
     27 C           3.2040   24.1710   21.3850 C.3     1  LIG1        0.0228
     28 C           4.0850   23.5060   20.3100 C.3     1  LIG1        0.0604
     29 O           5.0810   24.4120   19.8470 O.3     1  LIG1       -0.3772
     30 C           4.5250   25.6100   19.3120 C.3     1  LIG1        0.0604
     31 C           3.5990   26.3060   20.3360 C.3     1  LIG1        0.0228
     32 H          -6.4120   25.1200   18.0200 H       1  LIG1        0.0231
     33 H          -6.0550   25.0130   19.7240 H       1  LIG1        0.0231
     34 H          -3.6070   24.8410   19.2110 H       1  LIG1        0.0295
     35 H          -3.9460   25.0060   17.5080 H       1  LIG1        0.0295
     36 H          -5.1830   22.8870   17.4670 H       1  LIG1        0.0696
     37 H          -5.0570   22.6690   19.1750 H       1  LIG1        0.0696
     38 H          -0.7970   21.8030   17.6800 H       1  LIG1        0.0654
     39 CL          0.8520   21.3290   22.0520 Cl      1  LIG1       -0.0828
     40 H          -3.6550   22.6250   20.7890 H       1  LIG1        0.0662
     41 H          -1.1880   21.5780   28.1830 H       1  LIG1        0.0294
     42 H          -2.3850   22.8830   28.2180 H       1  LIG1        0.0294
     43 H          -2.7810   21.3320   27.4770 H       1  LIG1        0.0294
     44 H          -0.2280   24.1970   21.8420 H       1  LIG1        0.0642
     45 H           2.3980   26.3530   24.4490 H       1  LIG1        0.0621
     46 H           1.4530   25.2230   26.4080 H       1  LIG1        0.0639
     47 H           2.3490   26.9440   22.2800 H       1  LIG1        0.0476
     48 H           0.9370   26.6050   21.3200 H       1  LIG1        0.0476
     49 H           2.4240   23.4650   21.6520 H       1  LIG1        0.0449
     50 H           3.7860   24.3690   22.2860 H       1  LIG1        0.0449
     51 H           3.4740   23.1580   19.4750 H       1  LIG1        0.0572
     52 H           4.5630   22.6180   20.7190 H       1  LIG1        0.0572
     53 H           3.9860   25.3970   18.3870 H       1  LIG1        0.0572
     54 H           5.3400   26.2800   19.0380 H       1  LIG1        0.0572
     55 H           4.2140   26.7070   21.1440 H       1  LIG1        0.0449
     56 H           3.1180   27.1620   19.8610 H       1  LIG1        0.0449
     57 H          -5.4880   26.4400   18.8020 H       1  LIG1        0.0231
     58 H           0.8930   21.3680   19.2840 H       1  LIG1        0.0633
@<TRIPOS>BOND
     1     1     2    1
     2     1    32    1
     3     1    33    1
     4     1    57    1
     5     2     3    1
     6     2    34    1
     7     2    35    1
     8     3     4    1
     9     3    36    1
    10     3    37    1
    11     4     5    1
    12     5     6   ar
    13     5     9   ar
    14     6     7   ar
    15     6    38    1
    16     7     8   ar
    17     7    58    1
    18     8    10   ar
    19     8    39    1
    20     9    10   ar
    21     9    40    1
    22    10    11    1
    23    11    12   ar
    24    11    18   ar
    25    12    13   ar
    26    13    14   ar
    27    14    15   ar
    28    14    18   ar
    29    15    16    1
    30    15    17   ar
    31    16    41    1
    32    16    42    1
    33    16    43    1
    34    17    24   ar
    35    18    19   ar
    36    19    20   ar
    37    19    24   ar
    38    20    21   ar
    39    20    44    1
    40    21    22   ar
    41    21    25    1
    42    22    23   ar
    43    22    45    1
    44    23    24   ar
    45    23    46    1
    46    25    26    1
    47    25    47    1
    48    25    48    1
    49    26    27    1
    50    26    31    1
    51    27    28    1
    52    27    49    1
    53    27    50    1
    54    28    29    1
    55    28    51    1
    56    28    52    1
    57    29    30    1
    58    30    31    1
    59    30    53    1
    60    30    54    1
    61    31    55    1
    62    31    56    1
