systems/pde2/lig_49396360/lig_49396360.pdb
 OpenBabel09231909243D

 57 61  0  0  0  0  0  0  0  0999 V2000
   -5.6840   25.3270   18.8210 C   0  0  0  0  0  0  0  0  0  0  0  0
   -4.3960   24.6090   18.3840 C   0  0  0  0  0  0  0  0  0  0  0  0
   -4.5460   23.0770   18.3220 C   0  0  0  0  0  0  0  0  0  0  0  0
   -3.2900   22.4520   18.0510 O   0  0  0  0  0  0  0  0  0  0  0  0
   -2.3780   22.2610   19.0720 C   0  0  0  0  0  0  0  0  0  0  0  0
   -1.0750   21.9000   18.7190 C   0  0  0  0  0  0  0  0  0  0  0  0
   -0.0960   21.6390   19.6220 N   0  0  0  0  0  0  0  0  0  0  0  0
   -0.4090   21.7310   20.9380 C   0  0  0  0  0  0  0  0  0  0  0  0
   -2.6670   22.3670   20.4430 C   0  0  0  0  0  0  0  0  0  0  0  0
   -1.6780   22.0990   21.3940 C   0  0  0  0  0  0  0  0  0  0  0  0
   -2.0080   22.0870   22.8420 C   0  0  0  0  0  0  0  0  0  0  0  0
   -2.9560   21.3040   23.3160 N   0  0  0  0  0  0  0  0  0  0  0  0
   -2.9530   21.3360   24.6930 N   0  0  0  0  0  0  0  0  0  0  0  0
   -1.9680   22.1870   25.0440 C   0  0  0  0  0  0  0  0  0  0  0  0
   -1.4650   22.5800   26.2920 C   0  0  0  0  0  0  0  0  0  0  0  0
   -1.9850   22.0640   27.6200 C   0  0  0  0  0  0  0  0  0  0  0  0
   -0.4410   23.4620   26.3970 N   0  0  0  0  0  0  0  0  0  0  0  0
   -1.3710   22.7400   23.8950 N   0  0  0  0  0  0  0  0  0  0  0  0
   -0.3900   23.6820   23.9640 C   0  0  0  0  0  0  0  0  0  0  0  0
    0.1480   24.3760   22.8360 C   0  0  0  0  0  0  0  0  0  0  0  0
    1.1600   25.3300   23.0180 C   0  0  0  0  0  0  0  0  0  0  0  0
    1.6270   25.6100   24.3030 C   0  0  0  0  0  0  0  0  0  0  0  0
    1.1020   24.9720   25.4180 C   0  0  0  0  0  0  0  0  0  0  0  0
    0.0820   24.0150   25.2710 C   0  0  0  0  0  0  0  0  0  0  0  0
    1.7590   26.1290   21.8550 C   0  0  0  0  0  0  0  0  0  0  0  0
    2.5760   25.3940   20.8730 N   0  0  0  0  0  0  0  0  0  0  0  0
    3.2270   24.1860   21.3930 C   0  0  0  0  0  0  0  0  0  0  0  0
    4.1060   23.5210   20.3160 C   0  0  0  0  0  0  0  0  0  0  0  0
    5.0830   24.4350   19.8320 O   0  0  0  0  0  0  0  0  0  0  0  0
    4.5050   25.6190   19.2890 C   0  0  0  0  0  0  0  0  0  0  0  0
    3.5800   26.3140   20.3140 C   0  0  0  0  0  0  0  0  0  0  0  0
   -6.4760   25.1230   18.1000 H   0  0  0  0  0  0  0  0  0  0  0  0
   -6.0270   24.9200   19.7730 H   0  0  0  0  0  0  0  0  0  0  0  0
   -3.5830   24.8740   19.0610 H   0  0  0  0  0  0  0  0  0  0  0  0
   -4.1010   24.9750   17.3990 H   0  0  0  0  0  0  0  0  0  0  0  0
   -5.2060   22.8180   17.4970 H   0  0  0  0  0  0  0  0  0  0  0  0
   -5.0350   22.6720   19.2080 H   0  0  0  0  0  0  0  0  0  0  0  0
   -0.7970   21.8030   17.6800 H   0  0  0  0  0  0  0  0  0  0  0  0
    0.3780   21.4800   21.6340 H   0  0  0  0  0  0  0  0  0  0  0  0
   -3.6550   22.6250   20.7890 H   0  0  0  0  0  0  0  0  0  0  0  0
   -1.1880   21.5780   28.1830 H   0  0  0  0  0  0  0  0  0  0  0  0
   -2.3850   22.8830   28.2180 H   0  0  0  0  0  0  0  0  0  0  0  0
   -2.7810   21.3320   27.4770 H   0  0  0  0  0  0  0  0  0  0  0  0
   -0.2280   24.1970   21.8420 H   0  0  0  0  0  0  0  0  0  0  0  0
    2.3980   26.3530   24.4490 H   0  0  0  0  0  0  0  0  0  0  0  0
    1.4530   25.2230   26.4080 H   0  0  0  0  0  0  0  0  0  0  0  0
    2.3490   26.9440   22.2800 H   0  0  0  0  0  0  0  0  0  0  0  0
    0.9370   26.6050   21.3200 H   0  0  0  0  0  0  0  0  0  0  0  0
    2.4600   23.4720   21.6760 H   0  0  0  0  0  0  0  0  0  0  0  0
    3.8150   24.4040   22.2850 H   0  0  0  0  0  0  0  0  0  0  0  0
    3.4910   23.1540   19.4920 H   0  0  0  0  0  0  0  0  0  0  0  0
    4.6010   22.6450   20.7310 H   0  0  0  0  0  0  0  0  0  0  0  0
    3.9590   25.3870   18.3730 H   0  0  0  0  0  0  0  0  0  0  0  0
    5.3080   26.2970   18.9980 H   0  0  0  0  0  0  0  0  0  0  0  0
    4.1980   26.7330   21.1110 H   0  0  0  0  0  0  0  0  0  0  0  0
    3.0820   27.1570   19.8350 H   0  0  0  0  0  0  0  0  0  0  0  0
   -5.5130   26.4000   18.9060 H   0  0  0  0  0  0  0  0  0  0  0  0
  1  2  1  0  0  0  0
  1 32  1  0  0  0  0
  1 33  1  0  0  0  0
  1 57  1  0  0  0  0
  2  3  1  0  0  0  0
  2 34  1  0  0  0  0
  2 35  1  0  0  0  0
  3  4  1  0  0  0  0
  3 36  1  0  0  0  0
  3 37  1  0  0  0  0
  4  5  1  0  0  0  0
  5  6  2  0  0  0  0
  5  9  1  0  0  0  0
  6  7  1  0  0  0  0
  6 38  1  0  0  0  0
  7  8  2  0  0  0  0
  8 10  1  0  0  0  0
  8 39  1  0  0  0  0
  9 10  2  0  0  0  0
  9 40  1  0  0  0  0
 10 11  1  0  0  0  0
 11 12  2  0  0  0  0
 11 18  1  0  0  0  0
 12 13  1  0  0  0  0
 13 14  2  0  0  0  0
 14 15  1  0  0  0  0
 14 18  1  0  0  0  0
 15 16  1  0  0  0  0
 15 17  2  0  0  0  0
 16 41  1  0  0  0  0
 16 42  1  0  0  0  0
 16 43  1  0  0  0  0
 17 24  1  0  0  0  0
 18 19  1  0  0  0  0
 19 20  2  0  0  0  0
 19 24  1  0  0  0  0
 20 21  1  0  0  0  0
 20 44  1  0  0  0  0
 21 22  2  0  0  0  0
 21 25  1  0  0  0  0
 22 23  1  0  0  0  0
 22 45  1  0  0  0  0
 23 24  2  0  0  0  0
 23 46  1  0  0  0  0
 25 26  1  0  0  0  0
 25 47  1  0  0  0  0
 25 48  1  0  0  0  0
 26 27  1  0  0  0  0
 26 31  1  0  0  0  0
 27 28  1  0  0  0  0
 27 49  1  0  0  0  0
 27 50  1  0  0  0  0
 28 29  1  0  0  0  0
 28 51  1  0  0  0  0
 28 52  1  0  0  0  0
 29 30  1  0  0  0  0
 30 31  1  0  0  0  0
 30 53  1  0  0  0  0
 30 54  1  0  0  0  0
 31 55  1  0  0  0  0
 31 56  1  0  0  0  0
M  END
$$$$
