@<TRIPOS>MOLECULE
systems/pde2/lig_49175828/lig_49175828.pdb
 58 62 0 0 0
SMALL
GASTEIGER

@<TRIPOS>ATOM
      1 C          -4.6770   24.3490   18.7320 C.3     1  LIG1       -0.0281
      2 C          -4.6260   22.8570   18.3520 C.3     1  LIG1        0.0946
      3 O          -3.2900   22.4520   18.0510 O.3     1  LIG1       -0.4893
      4 C          -2.3780   22.2610   19.0720 C.ar    1  LIG1        0.1216
      5 C          -1.0750   21.9000   18.7190 C.ar    1  LIG1       -0.0185
      6 C          -0.0960   21.6390   19.6220 C.ar    1  LIG1       -0.0392
      7 C          -0.4090   21.7310   20.9380 C.ar    1  LIG1        0.0519
      8 C          -2.6670   22.3670   20.4430 C.ar    1  LIG1       -0.0078
      9 C          -1.6780   22.0990   21.3940 C.ar    1  LIG1        0.0413
     10 C          -2.0080   22.0870   22.8420 C.ar    1  LIG1        0.1706
     11 N          -2.9560   21.3040   23.3160 N.ar    1  LIG1       -0.1284
     12 N          -2.9530   21.3360   24.6930 N.ar    1  LIG1       -0.1272
     13 C          -1.9680   22.1870   25.0440 C.ar    1  LIG1        0.1830
     14 C          -1.4650   22.5800   26.2920 C.ar    1  LIG1        0.0834
     15 C          -1.9850   22.0640   27.6200 C.3     1  LIG1       -0.0187
     16 N          -0.4410   23.4620   26.3970 N.ar    1  LIG1       -0.2467
     17 N          -1.3710   22.7400   23.8950 N.ar    1  LIG1       -0.2721
     18 C          -0.3900   23.6820   23.9640 C.ar    1  LIG1        0.0757
     19 C           0.1480   24.3760   22.8360 C.ar    1  LIG1       -0.0312
     20 C           1.1600   25.3300   23.0180 C.ar    1  LIG1       -0.0313
     21 C           1.6270   25.6100   24.3030 C.ar    1  LIG1       -0.0552
     22 C           1.1020   24.9720   25.4180 C.ar    1  LIG1       -0.0340
     23 C           0.0820   24.0150   25.2710 C.ar    1  LIG1        0.0881
     24 C           1.7590   26.1290   21.8550 C.3     1  LIG1        0.0243
     25 N           2.5760   25.3940   20.8730 N.3     1  LIG1       -0.2938
     26 C           3.1510   24.1370   21.3660 C.3     1  LIG1        0.0228
     27 C           4.0360   23.4720   20.2940 C.3     1  LIG1        0.0604
     28 O           5.0720   24.3570   19.8810 O.3     1  LIG1       -0.3772
     29 C           4.5700   25.5870   19.3670 C.3     1  LIG1        0.0604
     30 C           3.6410   26.2850   20.3860 C.3     1  LIG1        0.0228
     31 H          -4.1440   24.5110   19.6690 H       1  LIG1        0.0265
     32 H          -4.1410   24.9240   17.9750 H       1  LIG1        0.0265
     33 C          -5.4530   22.6350   17.0720 C.3     1  LIG1       -0.0281
     34 H          -5.1000   22.2220   19.1020 H       1  LIG1        0.0727
     35 H          -0.7970   21.8030   17.6800 H       1  LIG1        0.0654
     36 CL          0.8520   21.3290   22.0520 Cl      1  LIG1       -0.0828
     37 H          -3.6550   22.6250   20.7890 H       1  LIG1        0.0662
     38 H          -1.1880   21.5780   28.1830 H       1  LIG1        0.0294
     39 H          -2.3850   22.8830   28.2180 H       1  LIG1        0.0294
     40 H          -2.7810   21.3320   27.4770 H       1  LIG1        0.0294
     41 H          -0.2280   24.1970   21.8420 H       1  LIG1        0.0642
     42 H           2.3980   26.3530   24.4490 H       1  LIG1        0.0621
     43 H           1.4530   25.2230   26.4080 H       1  LIG1        0.0639
     44 H           2.3490   26.9440   22.2800 H       1  LIG1        0.0476
     45 H           0.9370   26.6050   21.3200 H       1  LIG1        0.0476
     46 H           2.3410   23.4500   21.5940 H       1  LIG1        0.0449
     47 H           3.7160   24.2920   22.2860 H       1  LIG1        0.0449
     48 H           3.4350   23.1680   19.4350 H       1  LIG1        0.0572
     49 H           4.4750   22.5590   20.6900 H       1  LIG1        0.0572
     50 H           4.0480   25.4170   18.4230 H       1  LIG1        0.0572
     51 H           5.4130   26.2360   19.1320 H       1  LIG1        0.0572
     52 H           4.2490   26.6440   21.2200 H       1  LIG1        0.0449
     53 H           3.2010   27.1690   19.9240 H       1  LIG1        0.0449
     54 H           0.8930   21.3680   19.2840 H       1  LIG1        0.0633
     55 H          -5.7090   24.6900   18.8140 H       1  LIG1        0.0265
     56 H          -5.4210   21.5810   16.7970 H       1  LIG1        0.0265
     57 H          -6.4860   22.9330   17.2490 H       1  LIG1        0.0265
     58 H          -5.0360   23.2340   16.2620 H       1  LIG1        0.0265
@<TRIPOS>BOND
     1     1     2    1
     2     1    31    1
     3     1    32    1
     4     1    55    1
     5     2     3    1
     6     2    33    1
     7     2    34    1
     8     3     4    1
     9     4     5   ar
    10     4     8   ar
    11     5     6   ar
    12     5    35    1
    13     6     7   ar
    14     6    54    1
    15     7     9   ar
    16     7    36    1
    17     8     9   ar
    18     8    37    1
    19     9    10    1
    20    10    11   ar
    21    10    17   ar
    22    11    12   ar
    23    12    13   ar
    24    13    14   ar
    25    13    17   ar
    26    14    15    1
    27    14    16   ar
    28    15    38    1
    29    15    39    1
    30    15    40    1
    31    16    23   ar
    32    17    18   ar
    33    18    19   ar
    34    18    23   ar
    35    19    20   ar
    36    19    41    1
    37    20    21   ar
    38    20    24    1
    39    21    22   ar
    40    21    42    1
    41    22    23   ar
    42    22    43    1
    43    24    25    1
    44    24    44    1
    45    24    45    1
    46    25    26    1
    47    25    30    1
    48    26    27    1
    49    26    46    1
    50    26    47    1
    51    27    28    1
    52    27    48    1
    53    27    49    1
    54    28    29    1
    55    29    30    1
    56    29    50    1
    57    29    51    1
    58    30    52    1
    59    30    53    1
    60    33    56    1
    61    33    57    1
    62    33    58    1
