systems/pde2/lig_49175828/lig_49175828.pdb
 OpenBabel09231909243D

 58 62  0  0  0  0  0  0  0  0999 V2000
   -4.6770   24.3490   18.7320 C   0  0  0  0  0  0  0  0  0  0  0  0
   -4.6260   22.8570   18.3520 C   0  0  0  0  0  0  0  0  0  0  0  0
   -3.2900   22.4520   18.0510 O   0  0  0  0  0  0  0  0  0  0  0  0
   -2.3780   22.2610   19.0720 C   0  0  0  0  0  0  0  0  0  0  0  0
   -1.0750   21.9000   18.7190 C   0  0  0  0  0  0  0  0  0  0  0  0
   -0.0960   21.6390   19.6220 C   0  0  0  0  0  0  0  0  0  0  0  0
   -0.4090   21.7310   20.9380 C   0  0  0  0  0  0  0  0  0  0  0  0
   -2.6670   22.3670   20.4430 C   0  0  0  0  0  0  0  0  0  0  0  0
   -1.6780   22.0990   21.3940 C   0  0  0  0  0  0  0  0  0  0  0  0
   -2.0080   22.0870   22.8420 C   0  0  0  0  0  0  0  0  0  0  0  0
   -2.9560   21.3040   23.3160 N   0  0  0  0  0  0  0  0  0  0  0  0
   -2.9530   21.3360   24.6930 N   0  0  0  0  0  0  0  0  0  0  0  0
   -1.9680   22.1870   25.0440 C   0  0  0  0  0  0  0  0  0  0  0  0
   -1.4650   22.5800   26.2920 C   0  0  0  0  0  0  0  0  0  0  0  0
   -1.9850   22.0640   27.6200 C   0  0  0  0  0  0  0  0  0  0  0  0
   -0.4410   23.4620   26.3970 N   0  0  0  0  0  0  0  0  0  0  0  0
   -1.3710   22.7400   23.8950 N   0  0  0  0  0  0  0  0  0  0  0  0
   -0.3900   23.6820   23.9640 C   0  0  0  0  0  0  0  0  0  0  0  0
    0.1480   24.3760   22.8360 C   0  0  0  0  0  0  0  0  0  0  0  0
    1.1600   25.3300   23.0180 C   0  0  0  0  0  0  0  0  0  0  0  0
    1.6270   25.6100   24.3030 C   0  0  0  0  0  0  0  0  0  0  0  0
    1.1020   24.9720   25.4180 C   0  0  0  0  0  0  0  0  0  0  0  0
    0.0820   24.0150   25.2710 C   0  0  0  0  0  0  0  0  0  0  0  0
    1.7590   26.1290   21.8550 C   0  0  0  0  0  0  0  0  0  0  0  0
    2.5760   25.3940   20.8730 N   0  0  0  0  0  0  0  0  0  0  0  0
    3.1510   24.1370   21.3660 C   0  0  0  0  0  0  0  0  0  0  0  0
    4.0360   23.4720   20.2940 C   0  0  0  0  0  0  0  0  0  0  0  0
    5.0720   24.3570   19.8810 O   0  0  0  0  0  0  0  0  0  0  0  0
    4.5700   25.5870   19.3670 C   0  0  0  0  0  0  0  0  0  0  0  0
    3.6410   26.2850   20.3860 C   0  0  0  0  0  0  0  0  0  0  0  0
   -4.1440   24.5110   19.6690 H   0  0  0  0  0  0  0  0  0  0  0  0
   -4.1410   24.9240   17.9750 H   0  0  0  0  0  0  0  0  0  0  0  0
   -5.4530   22.6350   17.0720 C   0  0  0  0  0  0  0  0  0  0  0  0
   -5.1000   22.2220   19.1020 H   0  0  0  0  0  0  0  0  0  0  0  0
   -0.7970   21.8030   17.6800 H   0  0  0  0  0  0  0  0  0  0  0  0
    0.8520   21.3290   22.0520 Cl  0  0  0  0  0  0  0  0  0  0  0  0
   -3.6550   22.6250   20.7890 H   0  0  0  0  0  0  0  0  0  0  0  0
   -1.1880   21.5780   28.1830 H   0  0  0  0  0  0  0  0  0  0  0  0
   -2.3850   22.8830   28.2180 H   0  0  0  0  0  0  0  0  0  0  0  0
   -2.7810   21.3320   27.4770 H   0  0  0  0  0  0  0  0  0  0  0  0
   -0.2280   24.1970   21.8420 H   0  0  0  0  0  0  0  0  0  0  0  0
    2.3980   26.3530   24.4490 H   0  0  0  0  0  0  0  0  0  0  0  0
    1.4530   25.2230   26.4080 H   0  0  0  0  0  0  0  0  0  0  0  0
    2.3490   26.9440   22.2800 H   0  0  0  0  0  0  0  0  0  0  0  0
    0.9370   26.6050   21.3200 H   0  0  0  0  0  0  0  0  0  0  0  0
    2.3410   23.4500   21.5940 H   0  0  0  0  0  0  0  0  0  0  0  0
    3.7160   24.2920   22.2860 H   0  0  0  0  0  0  0  0  0  0  0  0
    3.4350   23.1680   19.4350 H   0  0  0  0  0  0  0  0  0  0  0  0
    4.4750   22.5590   20.6900 H   0  0  0  0  0  0  0  0  0  0  0  0
    4.0480   25.4170   18.4230 H   0  0  0  0  0  0  0  0  0  0  0  0
    5.4130   26.2360   19.1320 H   0  0  0  0  0  0  0  0  0  0  0  0
    4.2490   26.6440   21.2200 H   0  0  0  0  0  0  0  0  0  0  0  0
    3.2010   27.1690   19.9240 H   0  0  0  0  0  0  0  0  0  0  0  0
    0.8930   21.3680   19.2840 H   0  0  0  0  0  0  0  0  0  0  0  0
   -5.7090   24.6900   18.8140 H   0  0  0  0  0  0  0  0  0  0  0  0
   -5.4210   21.5810   16.7970 H   0  0  0  0  0  0  0  0  0  0  0  0
   -6.4860   22.9330   17.2490 H   0  0  0  0  0  0  0  0  0  0  0  0
   -5.0360   23.2340   16.2620 H   0  0  0  0  0  0  0  0  0  0  0  0
  1  2  1  0  0  0  0
  1 31  1  0  0  0  0
  1 32  1  0  0  0  0
  1 55  1  0  0  0  0
  2  3  1  0  0  0  0
  2 33  1  0  0  0  0
  2 34  1  0  0  0  0
  3  4  1  0  0  0  0
  4  5  2  0  0  0  0
  4  8  1  0  0  0  0
  5  6  1  0  0  0  0
  5 35  1  0  0  0  0
  6  7  2  0  0  0  0
  6 54  1  0  0  0  0
  7  9  1  0  0  0  0
  7 36  1  0  0  0  0
  8  9  2  0  0  0  0
  8 37  1  0  0  0  0
  9 10  1  0  0  0  0
 10 11  2  0  0  0  0
 10 17  1  0  0  0  0
 11 12  1  0  0  0  0
 12 13  2  0  0  0  0
 13 14  1  0  0  0  0
 13 17  1  0  0  0  0
 14 15  1  0  0  0  0
 14 16  2  0  0  0  0
 15 38  1  0  0  0  0
 15 39  1  0  0  0  0
 15 40  1  0  0  0  0
 16 23  1  0  0  0  0
 17 18  1  0  0  0  0
 18 19  2  0  0  0  0
 18 23  1  0  0  0  0
 19 20  1  0  0  0  0
 19 41  1  0  0  0  0
 20 21  2  0  0  0  0
 20 24  1  0  0  0  0
 21 22  1  0  0  0  0
 21 42  1  0  0  0  0
 22 23  2  0  0  0  0
 22 43  1  0  0  0  0
 24 25  1  0  0  0  0
 24 44  1  0  0  0  0
 24 45  1  0  0  0  0
 25 26  1  0  0  0  0
 25 30  1  0  0  0  0
 26 27  1  0  0  0  0
 26 46  1  0  0  0  0
 26 47  1  0  0  0  0
 27 28  1  0  0  0  0
 27 48  1  0  0  0  0
 27 49  1  0  0  0  0
 28 29  1  0  0  0  0
 29 30  1  0  0  0  0
 29 50  1  0  0  0  0
 29 51  1  0  0  0  0
 30 52  1  0  0  0  0
 30 53  1  0  0  0  0
 33 56  1  0  0  0  0
 33 57  1  0  0  0  0
 33 58  1  0  0  0  0
M  END
$$$$
