@<TRIPOS>MOLECULE
systems/pde2/lig_49582390/lig_49582390.pdb
 58 63 0 0 0
SMALL
GASTEIGER

@<TRIPOS>ATOM
      1 C          -4.5250   23.1210   18.3110 C.3     1  LIG1        0.0925
      2 O          -3.2900   22.4520   18.0510 O.3     1  LIG1       -0.4902
      3 C          -2.3780   22.2610   19.0720 C.ar    1  LIG1        0.1392
      4 C          -1.0750   21.9000   18.7190 C.ar    1  LIG1        0.0692
      5 N          -0.0960   21.6390   19.6220 N.ar    1  LIG1       -0.2589
      6 C          -0.4090   21.7310   20.9380 C.ar    1  LIG1        0.0385
      7 C          -2.6670   22.3670   20.4430 C.ar    1  LIG1       -0.0063
      8 C          -1.6780   22.0990   21.3940 C.ar    1  LIG1        0.0411
      9 C          -2.0080   22.0870   22.8420 C.ar    1  LIG1        0.1707
     10 N          -2.9560   21.3040   23.3160 N.ar    1  LIG1       -0.1284
     11 N          -2.9530   21.3360   24.6930 N.ar    1  LIG1       -0.1272
     12 C          -1.9680   22.1870   25.0440 C.ar    1  LIG1        0.1830
     13 C          -1.4650   22.5800   26.2920 C.ar    1  LIG1        0.0834
     14 C          -1.9850   22.0640   27.6200 C.3     1  LIG1       -0.0187
     15 N          -0.4410   23.4620   26.3970 N.ar    1  LIG1       -0.2467
     16 N          -1.3710   22.7400   23.8950 N.ar    1  LIG1       -0.2721
     17 C          -0.3900   23.6820   23.9640 C.ar    1  LIG1        0.0757
     18 C           0.1480   24.3760   22.8360 C.ar    1  LIG1       -0.0312
     19 C           1.1600   25.3300   23.0180 C.ar    1  LIG1       -0.0313
     20 C           1.6270   25.6100   24.3030 C.ar    1  LIG1       -0.0552
     21 C           1.1020   24.9720   25.4180 C.ar    1  LIG1       -0.0340
     22 C           0.0820   24.0150   25.2710 C.ar    1  LIG1        0.0881
     23 C           1.7590   26.1290   21.8550 C.3     1  LIG1        0.0243
     24 N           2.5760   25.3940   20.8730 N.3     1  LIG1       -0.2938
     25 C           3.1620   24.1440   21.3700 C.3     1  LIG1        0.0228
     26 C           4.0460   23.4790   20.2970 C.3     1  LIG1        0.0604
     27 O           5.0740   24.3680   19.8750 O.3     1  LIG1       -0.3772
     28 C           4.5610   25.5920   19.3560 C.3     1  LIG1        0.0604
     29 C           3.6330   26.2890   20.3760 C.3     1  LIG1        0.0228
     30 H          -5.1480   22.9780   17.4300 H       1  LIG1        0.0699
     31 H          -5.0880   22.6640   19.1260 H       1  LIG1        0.0699
     32 H          -0.7970   21.8030   17.6800 H       1  LIG1        0.0867
     33 H           0.3780   21.4800   21.6340 H       1  LIG1        0.0837
     34 H          -3.6550   22.6250   20.7890 H       1  LIG1        0.0662
     35 H          -1.1880   21.5780   28.1830 H       1  LIG1        0.0294
     36 H          -2.3850   22.8830   28.2180 H       1  LIG1        0.0294
     37 H          -2.7810   21.3320   27.4770 H       1  LIG1        0.0294
     38 H          -0.2280   24.1970   21.8420 H       1  LIG1        0.0642
     39 H           2.3980   26.3530   24.4490 H       1  LIG1        0.0621
     40 H           1.4530   25.2230   26.4080 H       1  LIG1        0.0639
     41 H           2.3490   26.9440   22.2800 H       1  LIG1        0.0476
     42 H           0.9370   26.6050   21.3200 H       1  LIG1        0.0476
     43 H           2.3580   23.4530   21.6060 H       1  LIG1        0.0449
     44 H           3.7300   24.3070   22.2870 H       1  LIG1        0.0449
     45 H           3.4430   23.1660   19.4430 H       1  LIG1        0.0572
     46 H           4.4930   22.5700   20.6960 H       1  LIG1        0.0572
     47 H           4.0350   25.4130   18.4160 H       1  LIG1        0.0572
     48 H           5.3990   26.2450   19.1130 H       1  LIG1        0.0572
     49 H           4.2420   26.6570   21.2050 H       1  LIG1        0.0449
     50 H           3.1840   27.1680   19.9110 H       1  LIG1        0.0449
     51 C          -5.1070   25.5220   17.6000 C.3     1  LIG1       -0.0468
     52 C          -4.3280   24.6280   18.5290 C.3     1  LIG1       -0.0068
     53 C          -5.5310   25.3780   19.0380 C.3     1  LIG1       -0.0468
     54 H          -4.6200   26.4880   17.3290 H       1  LIG1        0.0269
     55 H          -5.7490   25.0050   16.8480 H       1  LIG1        0.0269
     56 H          -3.3350   25.0140   18.8590 H       1  LIG1        0.0334
     57 H          -6.4470   24.7680   19.2190 H       1  LIG1        0.0269
     58 H          -5.3170   26.2510   19.7000 H       1  LIG1        0.0269
@<TRIPOS>BOND
     1     1     2    1
     2     1    30    1
     3     1    31    1
     4     1    52    1
     5     2     3    1
     6     3     4   ar
     7     3     7   ar
     8     4     5   ar
     9     4    32    1
    10     5     6   ar
    11     6     8   ar
    12     6    33    1
    13     7     8   ar
    14     7    34    1
    15     8     9    1
    16     9    10   ar
    17     9    16   ar
    18    10    11   ar
    19    11    12   ar
    20    12    13   ar
    21    12    16   ar
    22    13    14    1
    23    13    15   ar
    24    14    35    1
    25    14    36    1
    26    14    37    1
    27    15    22   ar
    28    16    17   ar
    29    17    18   ar
    30    17    22   ar
    31    18    19   ar
    32    18    38    1
    33    19    20   ar
    34    19    23    1
    35    20    21   ar
    36    20    39    1
    37    21    22   ar
    38    21    40    1
    39    23    24    1
    40    23    41    1
    41    23    42    1
    42    24    25    1
    43    24    29    1
    44    25    26    1
    45    25    43    1
    46    25    44    1
    47    26    27    1
    48    26    45    1
    49    26    46    1
    50    27    28    1
    51    28    29    1
    52    28    47    1
    53    28    48    1
    54    29    49    1
    55    29    50    1
    56    51    52    1
    57    51    53    1
    58    51    54    1
    59    51    55    1
    60    52    53    1
    61    52    56    1
    62    53    57    1
    63    53    58    1
