lig_CHEMBL3402753_200_13
  -OEChem-01272013113D

 46 49  0     0  0  0  0  0  0999 V2000
   24.6400   33.7600   50.5300 C   0  0  0  0  0  0  0  0  0  0  0  0
   24.2000   33.6100   51.9700 C   0  0  0  0  0  0  0  0  0  0  0  0
   22.9300   33.1300   52.2900 C   0  0  0  0  0  0  0  0  0  0  0  0
   22.5600   32.9800   53.6300 C   0  0  0  0  0  0  0  0  0  0  0  0
   23.4700   33.3200   54.6400 C   0  0  0  0  0  0  0  0  0  0  0  0
   24.7000   33.8100   54.3300 N   0  0  0  0  0  0  0  0  0  0  0  0
   25.0500   33.9400   53.0200 C   0  0  0  0  0  0  0  0  0  0  0  0
   23.2000   33.0600   56.1000 C   0  0  0  0  0  0  0  0  0  0  0  0
   24.2300   33.1100   57.0500 C   0  0  0  0  0  0  0  0  0  0  0  0
   24.0200   32.7200   58.3700 C   0  0  0  0  0  0  0  0  0  0  0  0
   22.7600   32.2700   58.7800 C   0  0  0  0  0  0  0  0  0  0  0  0
   21.7000   32.2500   57.8700 C   0  0  0  0  0  0  0  0  0  0  0  0
   20.3100   31.8100   58.3200 C   0  0  0  0  0  0  0  0  0  0  0  0
   19.9700   30.4300   57.9300 N   0  0  0  0  0  0  0  0  0  0  0  0
   19.4400   30.2700   56.6500 N   0  0  0  0  0  0  0  0  0  0  0  0
   19.0700   29.1200   56.1900 C   0  0  0  0  0  0  0  0  0  0  0  0
   19.3100   27.9700   57.0500 C   0  0  0  0  0  0  0  0  0  0  0  0
   19.8500   28.1200   58.2900 C   0  0  0  0  0  0  0  0  0  0  0  0
   20.2100   29.4100   58.8300 C   0  0  0  0  0  0  0  0  0  0  0  0
   20.6500   29.5400   59.9800 O   0  0  0  0  0  0  0  0  0  0  0  0
   18.4400   28.9600   54.8600 C   0  0  0  0  0  0  0  0  0  0  0  0
   17.9500   30.0900   54.1800 C   0  0  0  0  0  0  0  0  0  0  0  0
   17.3000   29.9700   52.9500 C   0  0  0  0  0  0  0  0  0  0  0  0
   16.8400   31.0800   52.3200 F   0  0  0  0  0  0  0  0  0  0  0  0
   17.1100   28.7100   52.3800 C   0  0  0  0  0  0  0  0  0  0  0  0
   17.5800   27.5800   53.0400 C   0  0  0  0  0  0  0  0  0  0  0  0
   17.3900   26.3600   52.5000 F   0  0  0  0  0  0  0  0  0  0  0  0
   18.2500   27.7000   54.2600 C   0  0  0  0  0  0  0  0  0  0  0  0
   21.9200   32.6700   56.5500 C   0  0  0  0  0  0  0  0  0  0  0  0
   25.1800   32.8600   50.2100 H   0  0  0  0  0  0  0  0  0  0  0  0
   25.3200   34.6100   50.4100 H   0  0  0  0  0  0  0  0  0  0  0  0
   23.7900   33.9100   49.8700 H   0  0  0  0  0  0  0  0  0  0  0  0
   22.2300   32.8700   51.5100 H   0  0  0  0  0  0  0  0  0  0  0  0
   21.5800   32.5800   53.8400 H   0  0  0  0  0  0  0  0  0  0  0  0
   26.0400   34.3100   52.8200 H   0  0  0  0  0  0  0  0  0  0  0  0
   25.2300   33.4100   56.7700 H   0  0  0  0  0  0  0  0  0  0  0  0
   24.8300   32.7300   59.0800 H   0  0  0  0  0  0  0  0  0  0  0  0
   22.6100   31.9300   59.7900 H   0  0  0  0  0  0  0  0  0  0  0  0
   20.2100   31.9600   59.4000 H   0  0  0  0  0  0  0  0  0  0  0  0
   19.5700   32.4900   57.9000 H   0  0  0  0  0  0  0  0  0  0  0  0
   19.0700   26.9600   56.7500 H   0  0  0  0  0  0  0  0  0  0  0  0
   20.0200   27.2400   58.9000 H   0  0  0  0  0  0  0  0  0  0  0  0
   18.0600   31.0800   54.6000 H   0  0  0  0  0  0  0  0  0  0  0  0
   16.6000   28.6100   51.4400 H   0  0  0  0  0  0  0  0  0  0  0  0
   18.6000   26.7900   54.7200 H   0  0  0  0  0  0  0  0  0  0  0  0
   21.0800   32.6400   55.8700 H   0  0  0  0  0  0  0  0  0  0  0  0
  1 32  1  0  0  0  0
  1 30  1  0  0  0  0
  1 31  1  0  0  0  0
  1  2  1  0  0  0  0
 25 44  1  0  0  0  0
  3 33  1  0  0  0  0
  2  3  2  0  0  0  0
  2  7  1  0  0  0  0
  3  4  1  0  0  0  0
 23 24  1  0  0  0  0
 23 25  2  0  0  0  0
 25 26  1  0  0  0  0
 26 27  1  0  0  0  0
  7 35  1  0  0  0  0
 22 23  1  0  0  0  0
  6  7  2  0  0  0  0
 26 28  2  0  0  0  0
  4 34  1  0  0  0  0
  4  5  2  0  0  0  0
 22 43  1  0  0  0  0
 21 22  2  0  0  0  0
 28 45  1  0  0  0  0
 21 28  1  0  0  0  0
  5  6  1  0  0  0  0
  5  8  1  0  0  0  0
 16 21  1  0  0  0  0
 29 46  1  0  0  0  0
  8 29  2  0  0  0  0
  8  9  1  0  0  0  0
 15 16  2  0  0  0  0
 16 17  1  0  0  0  0
 12 29  1  0  0  0  0
 14 15  1  0  0  0  0
 17 41  1  0  0  0  0
  9 36  1  0  0  0  0
  9 10  2  0  0  0  0
 17 18  2  0  0  0  0
 12 13  1  0  0  0  0
 11 12  2  0  0  0  0
 13 40  1  0  0  0  0
 13 14  1  0  0  0  0
 14 19  1  0  0  0  0
 18 19  1  0  0  0  0
 18 42  1  0  0  0  0
 13 39  1  0  0  0  0
 10 11  1  0  0  0  0
 10 37  1  0  0  0  0
 11 38  1  0  0  0  0
 19 20  2  0  0  0  0
M  END
$$$$
