lig_p38a_2aa
                    3D
 Structure written by MMmdl.
 43 45  0  0  1  0            999 V2000
   34.5500   34.9800   21.1800 C   0  0  0  0  0  0
   34.0400   38.9800   23.7400 C   0  0  0  0  0  0
   34.8000   37.8100   21.4400 C   0  0  0  0  0  0
   35.2500   37.1300   20.2300 C   0  0  0  0  0  0
   34.3100   37.0400   22.5100 C   0  0  0  0  0  0
   34.8500   39.2100   21.6200 C   0  0  0  0  0  0
   35.1700   35.7800   20.1300 C   0  0  0  0  0  0
   33.6700   34.8300   23.4600 C   0  0  0  0  0  0
   34.4800   39.7900   22.7800 N   0  0  0  0  0  0
   34.3300   33.7800   21.0200 O   0  0  0  0  0  0
   34.2100   35.6200   22.3400 N   0  0  0  0  0  0
   33.9300   37.6500   23.6600 N   0  0  0  0  0  0
   33.6700   39.5700   24.9300 N   0  0  0  0  0  0
   35.7000   37.7400   19.4700 H   0  0  0  0  0  0
   35.2200   39.8600   20.8400 H   0  0  0  0  0  0
   33.5600   35.4400   24.3600 H   0  0  0  0  0  0
   32.6800   34.4500   23.2000 H   0  0  0  0  0  0
   34.2900   33.9900   23.7600 H   0  0  0  0  0  0
   33.7900   40.5700   24.9700 H   0  0  0  0  0  0
   33.1200   38.7100   26.0600 C   0  0  0  0  0  0
   33.9800   38.9300   27.3200 C   0  0  0  0  0  0
   31.6700   39.1100   26.3500 C   0  0  0  0  0  0
   33.1600   37.6600   25.7700 H   0  0  0  0  0  0
   33.4700   38.1400   28.3800 O   0  0  0  0  0  0
   35.0100   38.6400   27.1200 H   0  0  0  0  0  0
   33.9400   39.9800   27.6100 H   0  0  0  0  0  0
   31.1600   38.3200   27.4000 O   0  0  0  0  0  0
   31.6300   40.1600   26.6400 H   0  0  0  0  0  0
   31.0600   38.9600   25.4600 H   0  0  0  0  0  0
   34.0000   38.2700   29.1600 H   0  0  0  0  0  0
   30.2500   38.5700   27.5800 H   0  0  0  0  0  0
   35.6600   35.1800   19.0100 O   0  0  0  0  0  0
   37.2600   38.0600   16.4500 C   0  0  0  0  0  0
   38.0600   37.5000   17.4700 C   0  0  0  0  0  0
   37.5200   36.5300   18.3300 C   0  0  0  0  0  0
   36.1900   36.1200   18.1700 C   0  0  0  0  0  0
   35.3900   36.6700   17.1600 C   0  0  0  0  0  0
   35.9300   37.6400   16.3000 C   0  0  0  0  0  0
   37.7700   38.9800   15.6300 F   0  0  0  0  0  0
   39.1000   37.8300   17.5900 H   0  0  0  0  0  0
   38.2700   36.0100   19.2900 F   0  0  0  0  0  0
   34.3400   36.3500   17.0400 H   0  0  0  0  0  0
   35.3000   38.0800   15.5000 H   0  0  0  0  0  0
  1  7  1  0  0  0
  1 10  2  0  0  0
  1 11  1  0  0  0
  2  9  1  0  0  0
  2 12  2  0  0  0
  2 13  1  0  0  0
  3  4  1  0  0  0
  3  5  2  0  0  0
  3  6  1  0  0  0
  4  7  2  0  0  0
  4 14  1  0  0  0
  5 11  1  0  0  0
  5 12  1  0  0  0
  6  9  2  0  0  0
  6 15  1  0  0  0
  7 32  1  0  0  0
  8 11  1  0  0  0
  8 16  1  0  0  0
  8 17  1  0  0  0
  8 18  1  0  0  0
 13 19  1  0  0  0
 13 20  1  0  0  0
 20 21  1  0  0  0
 20 22  1  0  0  0
 20 23  1  0  0  0
 21 24  1  0  0  0
 21 25  1  0  0  0
 21 26  1  0  0  0
 22 27  1  0  0  0
 22 28  1  0  0  0
 22 29  1  0  0  0
 24 30  1  0  0  0
 27 31  1  0  0  0
 32 36  1  0  0  0
 33 34  1  0  0  0
 33 38  2  0  0  0
 33 39  1  0  0  0
 34 35  2  0  0  0
 34 40  1  0  0  0
 35 36  1  0  0  0
 35 41  1  0  0  0
 36 37  2  0  0  0
 37 38  1  0  0  0
 37 42  1  0  0  0
 38 43  1  0  0  0
M  END
> <s_m_entry_id>
1

> <s_m_entry_name>
lig_p38a_2aa.1

> <s_pdb_PDB_TITLE>
MX MODEL

> <i_pdb_PDB_Model>
1

> <r_pdb_PDB_CRYST1_a>
177.04

> <r_pdb_PDB_CRYST1_b>
135.86

> <r_pdb_PDB_CRYST1_c>
273.32

> <r_pdb_PDB_CRYST1_alpha>
90

> <r_pdb_PDB_CRYST1_beta>
90

> <r_pdb_PDB_CRYST1_gamma>
90

> <s_pdb_PDB_CRYST1_Space_Group>
P 1

> <i_pdb_PDB_CRYST1_z>
1

> <s_pdb_PDB_format_version>
3.0

> <s_m_Source_Path>
/users/home/dhahn3/projects/PLBenchmarks/PLBenchmarks/data/2019-12-09_p38/03_docked/lig_p38a_2aa

> <s_m_Source_File>
lig_p38a_2aa.pdb

> <i_m_Source_File_Index>
1

$$$$
