CatS_162
 OpenBabel05281909343D

 95100  0  0  1  0  0  0  0  0999 V2000
   -4.4863    7.5392   -5.7132 C   0  0  0  0  0  0  0  0  0  0  0  0
   -4.6602    6.7109   -4.6310 C   0  0  0  0  0  0  0  0  0  0  0  0
   -5.8699    6.6379   -3.9730 C   0  0  0  0  0  0  0  0  0  0  0  0
   -6.9110    7.4268   -4.4419 C   0  0  0  0  0  0  0  0  0  0  0  0
   -6.7442    8.2479   -5.5343 C   0  0  0  0  0  0  0  0  0  0  0  0
   -5.5262    8.3209   -6.1830 C   0  0  0  0  0  0  0  0  0  0  0  0
   -5.3729    9.2153   -7.3198 C   0  0  0  0  0  0  0  0  0  0  0  0
   -6.3013    9.5348   -8.3338 C   0  0  0  0  0  0  0  0  0  0  0  0
   -5.6320   10.3810   -9.1233 C   0  0  0  0  0  0  0  0  0  0  0  0
   -4.3650   10.6260   -8.6809 N   0  0  0  0  0  0  0  0  0  0  0  0
   -4.2578    9.8690   -7.5652 N   0  0  0  0  0  0  0  0  0  0  0  0
   -3.2820   11.5019   -9.1679 C   0  0  0  0  0  0  0  0  0  0  0  0
   -3.0351   12.9250   -8.6220 C   0  0  2  0  0  0  0  0  0  0  0  0
   -2.4582   12.8950   -7.1940 C   0  0  0  0  0  0  0  0  0  0  0  0
   -2.1130   14.2737   -6.7860 N   0  3  0  0  0  0  0  0  0  0  0  0
   -1.2460   14.9391   -7.7821 C   0  0  0  0  0  0  0  0  0  0  0  0
   -0.9279   16.3791   -7.3868 C   0  0  0  0  0  0  0  0  0  0  0  0
   -0.3050   16.4251   -5.9978 C   0  0  0  0  0  0  0  0  0  0  0  0
   -1.2030   15.7170   -4.9989 C   0  0  0  0  0  0  0  0  0  0  0  0
   -1.4792   14.2951   -5.4641 C   0  0  0  0  0  0  0  0  0  0  0  0
   -4.2610   13.6690   -8.5964 O   0  0  0  0  0  0  0  0  0  0  0  0
   -6.2651   10.9469  -10.3862 C   0  0  0  0  0  0  0  0  0  0  0  0
   -7.7959   10.7440  -10.4582 C   0  0  0  0  0  0  0  0  0  0  0  0
   -8.2500    9.4452   -9.9049 N   0  0  0  0  0  0  0  0  0  0  0  0
   -7.7319    9.0717   -8.5741 C   0  0  0  0  0  0  0  0  0  0  0  0
   -9.1622    8.6351  -10.4912 C   0  0  0  0  0  0  0  0  0  0  0  0
   -9.1649    7.4181  -10.3570 O   0  0  0  0  0  0  0  0  0  0  0  0
   -8.5191    7.4481   -3.6400 S   0  0  0  0  0  0  0  0  0  0  0  0
   -9.0882    9.1672   -3.5891 C   0  0  0  0  0  0  0  0  0  0  0  0
   -7.9859   10.0770   -3.0061 C   0  0  0  0  0  0  0  0  0  0  0  0
   -8.4741   11.0242   -1.9848 N   0  3  2  0  0  0  0  0  0  0  0  0
   -9.7343   11.6311   -2.4138 C   0  0  0  0  0  0  0  0  0  0  0  0
  -10.2919   12.5450   -1.3273 C   0  0  0  0  0  0  0  0  0  0  0  0
   -9.3059   13.6379   -0.9381 C   0  0  2  0  0  0  0  0  0  0  0  0
   -7.9539   13.0170   -0.6358 C   0  0  0  0  0  0  0  0  0  0  0  0
   -7.4939   12.0830   -1.7471 C   0  0  0  0  0  0  0  0  0  0  0  0
   -5.9540    5.6899   -2.7790 C   0  0  0  0  0  0  0  0  0  0  0  0
   -5.8197    6.3781   -1.5790 F   0  0  0  0  0  0  0  0  0  0  0  0
   -7.1848    5.0439   -2.7508 F   0  0  0  0  0  0  0  0  0  0  0  0
   -4.9792    4.6960   -2.7841 F   0  0  0  0  0  0  0  0  0  0  0  0
   -9.7171   14.1890    0.0450 F   0  0  0  0  0  0  0  0  0  0  0  0
   -9.8175    9.0194  -11.1326 N   0  0  0  0  0  0  0  0  0  0  0  0
  -10.9183    8.1565  -11.1953 C   0  0  0  0  0  0  0  0  0  0  0  0
  -11.8410    8.6974  -12.0984 C   0  0  0  0  0  0  0  0  0  0  0  0
  -11.2154    8.8004  -13.3467 O   0  0  0  0  0  0  0  0  0  0  0  0
  -10.1039    9.6396  -13.2055 C   0  0  0  0  0  0  0  0  0  0  0  0
   -9.2444    9.0644  -12.2620 C   0  0  0  0  0  0  0  0  0  0  0  0
   -9.1951   14.5601   -1.9739 H   0  0  0  0  0  0  0  0  0  0  0  0
   -2.2381   13.4760   -9.3291 H   0  0  0  0  0  0  0  0  0  0  0  0
   -3.5970    7.5732   -6.1660 H   0  0  0  0  0  0  0  0  0  0  0  0
   -3.8921    6.1560   -4.3160 H   0  0  0  0  0  0  0  0  0  0  0  0
   -7.5099    8.8060   -5.8541 H   0  0  0  0  0  0  0  0  0  0  0  0
   -2.2557   10.8949   -9.0271 H   0  0  0  0  0  0  0  0  0  0  0  0
   -3.4738   11.6019  -10.3480 H   0  0  0  0  0  0  0  0  0  0  0  0
   -3.2398   12.3630   -6.4550 H   0  0  0  0  0  0  0  0  0  0  0  0
   -1.4850   12.1940   -7.2511 H   0  0  0  0  0  0  0  0  0  0  0  0
   -0.2439   14.3011   -7.9561 H   0  0  0  0  0  0  0  0  0  0  0  0
   -1.8488   14.9609   -8.8191 H   0  0  0  0  0  0  0  0  0  0  0  0
   -0.1579   16.8700   -8.1650 H   0  0  0  0  0  0  0  0  0  0  0  0
   -1.9400   17.0230   -7.3741 H   0  0  0  0  0  0  0  0  0  0  0  0
   -0.1761   17.5702   -5.6630 H   0  0  0  0  0  0  0  0  0  0  0  0
    0.7699   15.8922   -6.0170 H   0  0  0  0  0  0  0  0  0  0  0  0
   -2.2421   16.3121   -4.9177 H   0  0  0  0  0  0  0  0  0  0  0  0
   -0.6710   15.7251   -3.9251 H   0  0  0  0  0  0  0  0  0  0  0  0
   -0.4579   13.6639   -5.4441 H   0  0  0  0  0  0  0  0  0  0  0  0
   -2.2311   13.8080   -4.6658 H   0  0  0  0  0  0  0  0  0  0  0  0
   -4.1120   14.6070   -8.2650 H   0  0  0  0  0  0  0  0  0  0  0  0
   -6.0529   12.1221  -10.4687 H   0  0  0  0  0  0  0  0  0  0  0  0
   -5.7720   10.3860  -11.3252 H   0  0  0  0  0  0  0  0  0  0  0  0
   -8.1116   10.9422  -11.5961 H   0  0  0  0  0  0  0  0  0  0  0  0
   -8.3141   11.5919   -9.7850 H   0  0  0  0  0  0  0  0  0  0  0  0
   -8.4471    9.5701   -7.7481 H   0  0  0  0  0  0  0  0  0  0  0  0
   -7.7661    7.8781   -8.4601 H   0  0  0  0  0  0  0  0  0  0  0  0
  -10.0800    9.2619   -2.9210 H   0  0  0  0  0  0  0  0  0  0  0  0
   -9.3421    9.4981   -4.7151 H   0  0  0  0  0  0  0  0  0  0  0  0
   -7.1079    9.4011   -2.5440 H   0  0  0  0  0  0  0  0  0  0  0  0
   -7.5293   10.7101   -3.9191 H   0  0  0  0  0  0  0  0  0  0  0  0
  -10.5090   10.7480   -2.6623 H   0  0  0  0  0  0  0  0  0  0  0  0
   -9.5522   12.2629   -3.4190 H   0  0  0  0  0  0  0  0  0  0  0  0
  -11.2781   13.0980   -1.7303 H   0  0  0  0  0  0  0  0  0  0  0  0
  -10.5780   11.9111   -0.3479 H   0  0  0  0  0  0  0  0  0  0  0  0
   -8.0539   12.4063    0.3932 H   0  0  0  0  0  0  0  0  0  0  0  0
   -7.1287   13.8769   -0.4890 H   0  0  0  0  0  0  0  0  0  0  0  0
   -7.3410   12.6999   -2.7652 H   0  0  0  0  0  0  0  0  0  0  0  0
   -6.4352   11.6080   -1.4361 H   0  0  0  0  0  0  0  0  0  0  0  0
   -2.8877   14.7486   -6.7174 H   0  0  0  0  0  0  0  0  0  0  0  0
   -8.6152   10.5656   -1.2092 H   0  0  0  0  0  0  0  0  0  0  0  0
  -10.5939    7.2638  -11.5083 H   0  0  0  0  0  0  0  0  0  0  0  0
   -8.4178    9.6193  -12.1671 H   0  0  0  0  0  0  0  0  0  0  0  0
  -12.6274    8.0812  -12.1432 H   0  0  0  0  0  0  0  0  0  0  0  0
   -9.6570    9.7132  -14.0970 H   0  0  0  0  0  0  0  0  0  0  0  0
  -11.3124    8.0914  -10.2785 H   0  0  0  0  0  0  0  0  0  0  0  0
   -9.0169    8.1284  -12.5305 H   0  0  0  0  0  0  0  0  0  0  0  0
  -12.1128    9.5985  -11.7602 H   0  0  0  0  0  0  0  0  0  0  0  0
  -10.4286   10.5329  -12.8944 H   0  0  0  0  0  0  0  0  0  0  0  0
  1  2  2  0  0  0  0
  1  6  1  0  0  0  0
  1 50  1  0  0  0  0
  2  3  1  0  0  0  0
  2 51  1  0  0  0  0
  3  4  2  0  0  0  0
  3 37  1  0  0  0  0
  4  5  1  0  0  0  0
  4 28  1  0  0  0  0
  5  6  2  0  0  0  0
  5 52  1  0  0  0  0
  6  7  1  0  0  0  0
  7  8  1  0  0  0  0
  7 11  2  0  0  0  0
  8  9  2  0  0  0  0
  8 25  1  0  0  0  0
  9 10  1  0  0  0  0
  9 22  1  0  0  0  0
 10 11  1  0  0  0  0
 10 12  1  0  0  0  0
 12 13  1  0  0  0  0
 12 53  1  0  0  0  0
 12 54  1  0  0  0  0
 13 14  1  0  0  0  0
 13 21  1  0  0  0  0
 13 49  1  6  0  0  0
 14 15  1  0  0  0  0
 14 55  1  0  0  0  0
 14 56  1  0  0  0  0
 15 16  1  0  0  0  0
 15 20  1  0  0  0  0
 15 86  1  0  0  0  0
 16 17  1  0  0  0  0
 16 57  1  0  0  0  0
 16 58  1  0  0  0  0
 17 18  1  0  0  0  0
 17 59  1  0  0  0  0
 17 60  1  0  0  0  0
 18 19  1  0  0  0  0
 18 61  1  0  0  0  0
 18 62  1  0  0  0  0
 19 20  1  0  0  0  0
 19 63  1  0  0  0  0
 19 64  1  0  0  0  0
 20 65  1  0  0  0  0
 20 66  1  0  0  0  0
 21 67  1  0  0  0  0
 22 23  1  0  0  0  0
 22 68  1  0  0  0  0
 22 69  1  0  0  0  0
 23 24  1  0  0  0  0
 23 70  1  0  0  0  0
 23 71  1  0  0  0  0
 24 25  1  0  0  0  0
 24 26  1  0  0  0  0
 25 72  1  0  0  0  0
 25 73  1  0  0  0  0
 26 27  2  0  0  0  0
 28 29  1  0  0  0  0
 29 30  1  0  0  0  0
 29 74  1  0  0  0  0
 29 75  1  0  0  0  0
 30 31  1  0  0  0  0
 30 76  1  0  0  0  0
 30 77  1  0  0  0  0
 31 32  1  0  0  0  0
 31 36  1  0  0  0  0
 31 87  1  1  0  0  0
 32 33  1  0  0  0  0
 32 78  1  0  0  0  0
 32 79  1  0  0  0  0
 33 34  1  0  0  0  0
 33 80  1  0  0  0  0
 33 81  1  0  0  0  0
 34 35  1  0  0  0  0
 34 41  1  0  0  0  0
 34 48  1  6  0  0  0
 35 36  1  0  0  0  0
 35 82  1  0  0  0  0
 35 83  1  0  0  0  0
 36 84  1  0  0  0  0
 36 85  1  0  0  0  0
 37 38  1  0  0  0  0
 37 39  1  0  0  0  0
 37 40  1  0  0  0  0
 42 26  1  0  0  0  0
 42 47  1  0  0  0  0
 43 42  1  0  0  0  0
 44 43  1  0  0  0  0
 45 44  1  0  0  0  0
 46 45  1  0  0  0  0
 47 46  1  0  0  0  0
 88 43  1  0  0  0  0
 89 47  1  0  0  0  0
 90 44  1  0  0  0  0
 91 46  1  0  0  0  0
 92 43  1  0  0  0  0
 93 47  1  0  0  0  0
 94 44  1  0  0  0  0
 95 46  1  0  0  0  0
M  CHG  2  15   1  31   1
M  END
$$$$
