# created with PyMOL 2.4.0
@<TRIPOS>MOLECULE
lig_1oiy
49 52 1                 
SMALL
USER_CHARGES
@<TRIPOS>ATOM
1	   N	0.540	28.030	7.750	N.2	1	UNK0	0.000	
2	   C	1.380	28.920	6.970	C.2	1	UNK0	0.000	
3	   N	2.500	28.480	6.460	N.pl3	1	UNK0	0.000	
4	   N	1.070	30.160	6.940	N.2	1	UNK0	0.000	
5	   C	-0.090	30.720	7.480	C.2	1	UNK0	0.000	
6	   C	-0.880	29.920	8.180	C.2	1	UNK0	0.000	
7	   C	-0.550	28.530	8.280	C.2	1	UNK0	0.000	
8	   O	-1.440	27.790	8.930	O.3	1	UNK0	0.000	
9	   N	-1.970	30.750	8.570	N.2	1	UNK0	0.000	
10	   C	-1.670	31.940	8.130	C.2	1	UNK0	0.000	
11	   N	-0.530	31.960	7.450	N.pl3	1	UNK0	0.000	
12	   C	-0.890	26.410	8.870	C.3	1	UNK0	0.000	
13	   C	-1.480	25.620	10.080	C.3	1	UNK0	0.000	
14	   C	-1.140	26.180	11.490	C.3	1	UNK0	0.000	
15	   C	-1.760	25.450	12.680	C.3	1	UNK0	0.000	
16	   C	-1.400	23.880	12.640	C.3	1	UNK0	0.000	
17	   C	-1.790	23.360	11.270	C.3	1	UNK0	0.000	
18	   C	-1.180	24.110	10.030	C.3	1	UNK0	0.000	
19	   C	3.100	27.300	6.850	C.2	1	UNK0	0.000	
20	   C	4.010	26.710	5.950	C.2	1	UNK0	0.000	
21	   C	4.720	25.570	6.230	C.2	1	UNK0	0.000	
22	   C	4.560	24.900	7.420	C.2	1	UNK0	0.000	
23	   C	3.650	25.460	8.390	C.2	1	UNK0	0.000	
24	   C	2.990	26.630	8.070	C.2	1	UNK0	0.000	
25	   H	2.940	29.030	5.740	 H	1	UNK0	0.000	
26	   H	-2.290	32.810	8.290	 H	1	UNK0	0.000	
27	   H	-0.090	32.750	7.010	 H	1	UNK0	0.000	
28	   H	0.200	26.440	8.940	 H	1	UNK0	0.000	
29	   H	-1.190	25.930	7.940	 H	1	UNK0	0.000	
30	   H	-2.550	25.770	9.950	 H	1	UNK0	0.000	
31	   H	-1.470	27.220	11.530	 H	1	UNK0	0.000	
32	   H	-0.050	26.140	11.610	 H	1	UNK0	0.000	
33	   H	-2.840	25.570	12.640	 H	1	UNK0	0.000	
34	   H	-1.380	25.880	13.600	 H	1	UNK0	0.000	
35	   H	-1.950	23.360	13.420	 H	1	UNK0	0.000	
36	   H	-0.330	23.750	12.800	 H	1	UNK0	0.000	
37	   H	-2.880	23.420	11.190	 H	1	UNK0	0.000	
38	   H	-1.490	22.320	11.210	 H	1	UNK0	0.000	
39	   H	-0.100	23.950	10.020	 H	1	UNK0	0.000	
40	   H	-1.610	23.690	9.110	 H	1	UNK0	0.000	
41	   H	4.150	27.180	4.990	 H	1	UNK0	0.000	
42	   H	5.430	25.190	5.500	 H	1	UNK0	0.000	
43	   H	3.490	24.980	9.340	 H	1	UNK0	0.000	
44	   H	2.350	27.060	8.820	 H	1	UNK0	0.000	
45	   C	5.230	23.750	7.680	C.2	1	UNK0	0.000	
46	   O	5.670	23.010	6.800	O.2	1	UNK0	0.000	
47	   N	5.370	23.500	9.010	N.pl3	1	UNK0	0.000	
48	   H	5.850	22.670	9.310	 H	1	UNK0	0.000	
49	   H	5.000	24.130	9.720	 H	1	UNK0	0.000	
@<TRIPOS>BOND
1 1 2 1
2 1 7 2
3 2 3 1
4 2 4 2
5 3 19 1
6 3 25 1
7 4 5 1
8 5 6 2
9 5 11 1
10 6 7 1
11 6 9 1
12 7 8 1
13 8 12 1
14 9 10 2
15 10 11 1
16 10 26 1
17 11 27 1
18 12 13 1
19 12 28 1
20 12 29 1
21 13 14 1
22 13 18 1
23 13 30 1
24 14 15 1
25 14 31 1
26 14 32 1
27 15 16 1
28 15 33 1
29 15 34 1
30 16 17 1
31 16 35 1
32 16 36 1
33 17 18 1
34 17 37 1
35 17 38 1
36 18 39 1
37 18 40 1
38 19 20 1
39 19 24 2
40 20 21 2
41 20 41 1
42 21 22 1
43 21 42 1
44 22 23 2
45 22 45 1
46 23 24 1
47 23 43 1
48 24 44 1
49 45 46 2
50 45 47 1
51 47 48 1
52 47 49 1
@<TRIPOS>SUBSTRUCTURE
1	UNK0	1	GROUP	1 ****	UNK
