lig_1oiu
                    3D
 Structure written by MMmdl.
 50 53  0  0  1  0            999 V2000
    0.5400   28.0300    7.7500 N   0  0  0  0  0  0
    1.3800   28.9200    6.9700 C   0  0  0  0  0  0
    2.5000   28.4800    6.4600 N   0  0  0  0  0  0
    1.0700   30.1600    6.9400 N   0  0  0  0  0  0
   -0.0900   30.7200    7.4800 C   0  0  0  0  0  0
   -0.8800   29.9200    8.1800 C   0  0  0  0  0  0
   -0.5500   28.5300    8.2800 C   0  0  0  0  0  0
   -1.4400   27.7900    8.9300 O   0  0  0  0  0  0
   -1.9700   30.7500    8.5700 N   0  0  0  0  0  0
   -1.6700   31.9400    8.1300 C   0  0  0  0  0  0
   -0.5300   31.9600    7.4500 N   0  0  0  0  0  0
   -0.8900   26.4100    8.8700 C   0  0  0  0  0  0
   -1.4800   25.6200   10.0800 C   0  0  0  0  0  0
   -1.1400   26.1800   11.4900 C   0  0  0  0  0  0
   -1.7600   25.4500   12.6800 C   0  0  0  0  0  0
   -1.4000   23.8800   12.6400 C   0  0  0  0  0  0
   -1.7900   23.3600   11.2700 C   0  0  0  0  0  0
   -1.1800   24.1100   10.0300 C   0  0  0  0  0  0
    3.1000   27.3000    6.8500 C   0  0  0  0  0  0
    3.9100   26.6500    5.9000 C   0  0  0  0  0  0
    4.6200   25.4900    6.1700 C   0  0  0  0  0  0
    4.5400   24.8800    7.4000 C   0  0  0  0  0  0
    5.0700   23.9600    7.6000 H   0  0  0  0  0  0
    3.7300   25.5200    8.4100 C   0  0  0  0  0  0
    3.6400   25.0800    9.4000 H   0  0  0  0  0  0
    3.0800   26.6900    8.1100 C   0  0  0  0  0  0
    2.9400   29.0300    5.7400 H   0  0  0  0  0  0
   -2.2900   32.8100    8.2900 H   0  0  0  0  0  0
   -0.0900   32.7500    7.0100 H   0  0  0  0  0  0
    0.2000   26.4400    8.9400 H   0  0  0  0  0  0
   -1.1900   25.9300    7.9400 H   0  0  0  0  0  0
   -2.5500   25.7700    9.9500 H   0  0  0  0  0  0
   -1.4700   27.2200   11.5300 H   0  0  0  0  0  0
   -0.0500   26.1400   11.6100 H   0  0  0  0  0  0
   -2.8400   25.5700   12.6400 H   0  0  0  0  0  0
   -1.3800   25.8800   13.6000 H   0  0  0  0  0  0
   -1.9500   23.3600   13.4200 H   0  0  0  0  0  0
   -0.3300   23.7500   12.8000 H   0  0  0  0  0  0
   -2.8800   23.4200   11.1900 H   0  0  0  0  0  0
   -1.4900   22.3200   11.2100 H   0  0  0  0  0  0
   -0.1000   23.9500   10.0200 H   0  0  0  0  0  0
   -1.6100   23.6900    9.1100 H   0  0  0  0  0  0
    3.9800   27.0700    4.9100 H   0  0  0  0  0  0
    2.5200   27.1700    8.8900 H   0  0  0  0  0  0
    5.6000   24.8100    4.9600 S   0  0  0  0  0  0
    7.2200   24.6200    5.6900 N   0  0  0  0  0  0
    7.5400   25.5000    6.0500 H   0  0  0  0  0  0
    7.8600   24.2900    4.9900 H   0  0  0  0  0  0
    5.0800   23.4900    4.6800 O   0  0  0  0  0  0
    5.7100   25.7900    3.9000 O   0  0  0  0  0  0
  1  2  1  0  0  0
  1  7  2  0  0  0
  2  3  1  0  0  0
  2  4  2  0  0  0
  3 19  1  0  0  0
  3 27  1  0  0  0
  4  5  1  0  0  0
  5  6  2  0  0  0
  5 11  1  0  0  0
  6  7  1  0  0  0
  6  9  1  0  0  0
  7  8  1  0  0  0
  8 12  1  0  0  0
  9 10  2  0  0  0
 10 11  1  0  0  0
 10 28  1  0  0  0
 11 29  1  0  0  0
 12 13  1  0  0  0
 12 30  1  0  0  0
 12 31  1  0  0  0
 13 14  1  0  0  0
 13 18  1  0  0  0
 13 32  1  0  0  0
 14 15  1  0  0  0
 14 33  1  0  0  0
 14 34  1  0  0  0
 15 16  1  0  0  0
 15 35  1  0  0  0
 15 36  1  0  0  0
 16 17  1  0  0  0
 16 37  1  0  0  0
 16 38  1  0  0  0
 17 18  1  0  0  0
 17 39  1  0  0  0
 17 40  1  0  0  0
 18 41  1  0  0  0
 18 42  1  0  0  0
 19 20  1  0  0  0
 19 26  2  0  0  0
 20 21  2  0  0  0
 20 43  1  0  0  0
 21 22  1  0  0  0
 21 45  1  0  0  0
 22 23  1  0  0  0
 22 24  2  0  0  0
 24 25  1  0  0  0
 24 26  1  0  0  0
 26 44  1  0  0  0
 45 46  1  0  0  0
 45 49  2  0  0  0
 45 50  2  0  0  0
 46 47  1  0  0  0
 46 48  1  0  0  0
M  END
> <s_m_entry_id>
5

> <s_m_entry_name>
lig_1oiu.1

> <s_m_Source_Path>
C:\Users\dhahn3\PROJECTS\PLBenchmarks\systems\cdk2

> <s_m_Source_File>
lig_1oiu.mol

> <i_m_Source_File_Index>
1

$$$$
