lig_CAT-13n
     RDKit          3D

 44 47  0  0  0  0  0  0  0  0999 V2000
   13.4100   -2.4800   -0.9300 C   0  0  0  0  0  0  0  0  0  0  0  0
   15.3100   -2.5600    0.5400 N   0  0  0  0  0  0  0  0  0  0  0  0
   12.6900   -2.3200   -1.8900 O   0  0  0  0  0  0  0  0  0  0  0  0
   14.9600   -2.7100   -0.9300 C   0  0  1  0  0  0  0  0  0  0  0  0
   13.0100   -2.4300    0.3900 N   0  0  0  0  0  0  0  0  0  0  0  0
   14.1700   -2.4900    1.2300 C   0  0  0  0  0  0  0  0  0  0  0  0
   14.1100   -2.3700    2.5600 N   0  0  0  0  0  0  0  0  0  0  0  0
   11.6100   -2.2400    0.7900 C   0  0  0  0  0  0  0  0  0  0  0  0
   16.0300    4.0400   -0.2100 C   0  0  0  0  0  0  0  0  0  0  0  0
   16.7800    4.7200    1.2200 Cl  0  0  0  0  0  0  0  0  0  0  0  0
   15.2400   -4.1300   -1.4300 C   0  0  0  0  0  0  0  0  0  0  0  0
   16.3700   -4.8200   -1.0300 N   0  0  0  0  0  0  0  0  0  0  0  0
   16.6000   -6.1300   -1.4400 C   0  0  0  0  0  0  0  0  0  0  0  0
   15.7100   -6.7600   -2.2800 C   0  0  0  0  0  0  0  0  0  0  0  0
   14.5900   -6.0800   -2.7200 C   0  0  0  0  0  0  0  0  0  0  0  0
   14.3500   -4.7800   -2.3100 N   0  0  0  0  0  0  0  0  0  0  0  0
   15.6800   -1.5900   -1.7100 C   0  0  0  0  0  0  0  0  0  0  0  0
   16.5600   -1.8900   -2.7400 C   0  0  0  0  0  0  0  0  0  0  0  0
   17.1500   -0.8800   -3.4700 C   0  0  0  0  0  0  0  0  0  0  0  0
   16.8900    0.4500   -3.1700 C   0  0  0  0  0  0  0  0  0  0  0  0
   16.0300    0.7800   -2.1200 C   0  0  0  0  0  0  0  0  0  0  0  0
   15.4100   -0.2600   -1.4000 C   0  0  0  0  0  0  0  0  0  0  0  0
   15.1500    4.7400   -0.9300 C   0  0  0  0  0  0  0  0  0  0  0  0
   14.8900    5.7400   -0.6000 H   0  0  0  0  0  0  0  0  0  0  0  0
   16.3300    2.8000   -0.6300 C   0  0  0  0  0  0  0  0  0  0  0  0
   15.7700    2.2100   -1.7600 C   0  0  0  0  0  0  0  0  0  0  0  0
   14.8800    2.9800   -2.5000 C   0  0  0  0  0  0  0  0  0  0  0  0
   14.4300    2.5800   -3.4000 H   0  0  0  0  0  0  0  0  0  0  0  0
   14.5600    4.2600   -2.0800 C   0  0  0  0  0  0  0  0  0  0  0  0
   13.8700    4.8800   -2.6500 H   0  0  0  0  0  0  0  0  0  0  0  0
   17.0500    2.2200   -0.0600 H   0  0  0  0  0  0  0  0  0  0  0  0
   14.7300   -0.0100   -0.5900 H   0  0  0  0  0  0  0  0  0  0  0  0
   17.3500    1.2400   -3.7600 H   0  0  0  0  0  0  0  0  0  0  0  0
   16.8000   -2.9300   -2.9600 H   0  0  0  0  0  0  0  0  0  0  0  0
   17.8300   -1.1200   -4.2900 H   0  0  0  0  0  0  0  0  0  0  0  0
   17.4900   -6.6600   -1.1100 H   0  0  0  0  0  0  0  0  0  0  0  0
   13.8800   -6.5700   -3.3900 H   0  0  0  0  0  0  0  0  0  0  0  0
   15.8800   -7.7900   -2.6000 H   0  0  0  0  0  0  0  0  0  0  0  0
   13.2200   -2.2800    3.0200 H   0  0  0  0  0  0  0  0  0  0  0  0
   14.9600   -2.3800    3.1100 H   0  0  0  0  0  0  0  0  0  0  0  0
   11.3100   -1.2100    0.6100 H   0  0  0  0  0  0  0  0  0  0  0  0
   11.5000   -2.4700    1.8500 H   0  0  0  0  0  0  0  0  0  0  0  0
   10.9700   -2.9100    0.2100 H   0  0  0  0  0  0  0  0  0  0  0  0
   16.1960   -2.5105    1.0223 H   0  0  0  0  0  0  0  0  0  0  0  0
  1  3  2  0
  1  4  1  0
  1  5  1  0
  2  4  1  0
  2  6  2  0
  2 44  1  0
  4 17  1  6
  4 11  1  0
  5  8  1  0
  5  6  1  0
  6  7  1  0
  7 39  1  0
  7 40  1  0
  8 43  1  0
  8 41  1  0
  8 42  1  0
  9 23  2  0
  9 25  1  0
  9 10  1  0
 11 16  1  0
 11 12  2  0
 12 13  1  0
 13 14  2  0
 13 36  1  0
 14 15  1  0
 14 38  1  0
 15 37  1  0
 15 16  2  0
 17 18  2  0
 17 22  1  0
 18 19  1  0
 18 34  1  0
 19 35  1  0
 19 20  2  0
 20 33  1  0
 20 21  1  0
 21 26  1  0
 21 22  2  0
 22 32  1  0
 23 29  1  0
 23 24  1  0
 25 26  2  0
 25 31  1  0
 26 27  1  0
 27 28  1  0
 27 29  2  0
 29 30  1  0
M  CHG  1   2   1
M  END
>  <s_m_entry_id>  (1) 
25

>  <s_m_entry_name>  (1) 
lig_CAT-13n.1

>  <s_m_Source_Path>  (1) 
C:\Users\dhahn3\Downloads\bace

>  <s_m_Source_File>  (1) 
lig_CAT-13n.sdf

>  <i_m_Source_File_Index>  (1) 
1

$$$$
