lig_p38a_2q
                    3D
 Structure written by MMmdl.
 59 63  0  0  1  0            999 V2000
   34.5500   34.9800   21.1800 C   0  0  0  0  0  0
   34.0400   38.9800   23.7400 C   0  0  0  0  0  0
   34.8000   37.8100   21.4400 C   0  0  0  0  0  0
   35.2500   37.1300   20.2300 C   0  0  0  0  0  0
   34.3100   37.0400   22.5100 C   0  0  0  0  0  0
   34.8500   39.2100   21.6200 C   0  0  0  0  0  0
   35.1700   35.7800   20.1300 C   0  0  0  0  0  0
   34.4800   39.7900   22.7800 N   0  0  0  0  0  0
   34.3300   33.7800   21.0200 O   0  0  0  0  0  0
   34.2100   35.6200   22.3400 N   0  0  0  0  0  0
   33.9300   37.6500   23.6600 N   0  0  0  0  0  0
   33.6700   39.5700   24.9300 N   0  0  0  0  0  0
   35.7000   37.7400   19.4700 H   0  0  0  0  0  0
   35.2200   39.8600   20.8400 H   0  0  0  0  0  0
   33.7900   40.5700   24.9700 H   0  0  0  0  0  0
   31.9900   33.2000   24.2700 C   0  0  0  0  0  0
   32.5400   33.9800   23.0600 C   0  0  0  0  0  0
   33.7300   34.8600   23.4800 C   0  0  0  0  0  0
   33.3500   35.8100   24.6200 C   0  0  0  0  0  0
   32.7900   35.0300   25.8200 C   0  0  0  0  0  0
   32.7600   32.4800   24.6300 H   0  0  0  0  0  0
   31.1000   32.6000   23.9500 H   0  0  0  0  0  0
   31.7400   34.6300   22.6400 H   0  0  0  0  0  0
   32.8500   33.2700   22.2600 H   0  0  0  0  0  0
   34.5800   34.2000   23.8100 H   0  0  0  0  0  0
   34.2400   36.4100   24.9400 H   0  0  0  0  0  0
   32.5800   36.5300   24.2600 H   0  0  0  0  0  0
   33.6000   34.3800   26.2500 H   0  0  0  0  0  0
   32.4800   35.7400   26.6300 H   0  0  0  0  0  0
   31.5800   34.1600   25.4200 S   0  0  0  0  0  0
   30.5200   35.0600   24.9100 O   0  0  0  0  0  0
   31.2100   33.3200   26.5800 O   0  0  0  0  0  0
   31.1300   38.3300   27.4800 C   0  0  0  0  0  0
   31.7000   39.1500   26.3100 C   0  0  0  0  0  0
   33.1500   38.7500   26.0100 C   0  0  0  0  0  0
   34.0300   38.9100   27.2600 C   0  0  0  0  0  0
   33.4700   38.1000   28.4300 C   0  0  0  0  0  0
   32.0100   38.4900   28.7300 O   0  0  0  0  0  0
   31.0900   37.2500   27.2000 H   0  0  0  0  0  0
   30.0900   38.6500   27.7100 H   0  0  0  0  0  0
   31.6500   40.2300   26.5500 H   0  0  0  0  0  0
   31.0600   38.9900   25.4000 H   0  0  0  0  0  0
   33.1900   37.6900   25.6600 H   0  0  0  0  0  0
   35.0800   38.5900   27.0300 H   0  0  0  0  0  0
   34.0800   39.9900   27.5400 H   0  0  0  0  0  0
   33.5200   37.0100   28.1900 H   0  0  0  0  0  0
   34.1000   38.2500   29.3400 H   0  0  0  0  0  0
   35.6600   35.1800   19.0100 O   0  0  0  0  0  0
   37.2600   38.0600   16.4500 C   0  0  0  0  0  0
   38.0600   37.4800   17.4500 C   0  0  0  0  0  0
   37.5200   36.5100   18.3100 C   0  0  0  0  0  0
   36.1900   36.1200   18.1700 C   0  0  0  0  0  0
   35.3800   36.6900   17.1700 C   0  0  0  0  0  0
   35.9200   37.6600   16.3100 C   0  0  0  0  0  0
   37.7700   38.9800   15.6300 F   0  0  0  0  0  0
   39.1200   37.8000   17.5600 H   0  0  0  0  0  0
   38.2900   35.9700   19.2600 F   0  0  0  0  0  0
   34.3300   36.3800   17.0600 H   0  0  0  0  0  0
   35.2900   38.1100   15.5300 H   0  0  0  0  0  0
  1  7  1  0  0  0
  1  9  2  0  0  0
  1 10  1  0  0  0
  2  8  1  0  0  0
  2 11  2  0  0  0
  2 12  1  0  0  0
  3  4  1  0  0  0
  3  5  2  0  0  0
  3  6  1  0  0  0
  4  7  2  0  0  0
  4 13  1  0  0  0
  5 10  1  0  0  0
  5 11  1  0  0  0
  6  8  2  0  0  0
  6 14  1  0  0  0
  7 48  1  0  0  0
 10 18  1  0  0  0
 12 15  1  0  0  0
 12 35  1  0  0  0
 16 17  1  0  0  0
 16 21  1  0  0  0
 16 22  1  0  0  0
 16 30  1  0  0  0
 17 18  1  0  0  0
 17 23  1  0  0  0
 17 24  1  0  0  0
 18 19  1  0  0  0
 18 25  1  0  0  0
 19 20  1  0  0  0
 19 26  1  0  0  0
 19 27  1  0  0  0
 20 28  1  0  0  0
 20 29  1  0  0  0
 20 30  1  0  0  0
 30 31  2  0  0  0
 30 32  2  0  0  0
 33 34  1  0  0  0
 33 38  1  0  0  0
 33 39  1  0  0  0
 33 40  1  0  0  0
 34 35  1  0  0  0
 34 41  1  0  0  0
 34 42  1  0  0  0
 35 36  1  0  0  0
 35 43  1  0  0  0
 36 37  1  0  0  0
 36 44  1  0  0  0
 36 45  1  0  0  0
 37 38  1  0  0  0
 37 46  1  0  0  0
 37 47  1  0  0  0
 48 52  1  0  0  0
 49 50  1  0  0  0
 49 54  2  0  0  0
 49 55  1  0  0  0
 50 51  2  0  0  0
 50 56  1  0  0  0
 51 52  1  0  0  0
 51 57  1  0  0  0
 52 53  2  0  0  0
 53 54  1  0  0  0
 53 58  1  0  0  0
 54 59  1  0  0  0
M  END
> <s_m_entry_id>
18

> <s_m_entry_name>
lig_p38a_2q.1

> <s_pdb_PDB_TITLE>
MX MODEL

> <i_pdb_PDB_Model>
1

> <r_pdb_PDB_CRYST1_a>
180.54

> <r_pdb_PDB_CRYST1_b>
161.78

> <r_pdb_PDB_CRYST1_c>
276.3

> <r_pdb_PDB_CRYST1_alpha>
90

> <r_pdb_PDB_CRYST1_beta>
90

> <r_pdb_PDB_CRYST1_gamma>
90

> <s_pdb_PDB_CRYST1_Space_Group>
P 1

> <i_pdb_PDB_CRYST1_z>
1

> <s_pdb_PDB_format_version>
3.0

> <s_m_Source_Path>
/users/home/dhahn3/projects/PLBenchmarks/PLBenchmarks/data/2019-12-09_p38/03_docked

> <s_m_Source_File>
lig_p38a_2q.pdb

> <i_m_Source_File_Index>
1

$$$$
