lig_68
  -OEChem-01312017313D

 43 46  0     0  0  0  0  0  0999 V2000
    3.8100  -50.0800    6.4300 O   0  5  0  0  0  0  0  0  0  0  0  0
    2.9400  -49.1700    6.5100 C   0  0  0  0  0  0  0  0  0  0  0  0
    3.2800  -47.9700    6.6700 O   0  0  0  0  0  0  0  0  0  0  0  0
    1.5200  -49.6100    6.4100 C   0  0  0  0  0  0  0  0  0  0  0  0
    1.0100  -51.1700    6.8300 O   0  0  0  0  0  0  0  0  0  0  0  0
   -0.6500  -51.0200    6.4700 C   0  0  0  0  0  0  0  0  0  0  0  0
   -1.7400  -51.8800    6.5500 C   0  0  0  0  0  0  0  0  0  0  0  0
   -1.5900  -52.9000    6.8900 H   0  0  0  0  0  0  0  0  0  0  0  0
   -3.0100  -51.4600    6.1900 C   0  0  0  0  0  0  0  0  0  0  0  0
   -3.8500  -52.1300    6.2600 H   0  0  0  0  0  0  0  0  0  0  0  0
   -3.1800  -50.1500    5.7300 C   0  0  0  0  0  0  0  0  0  0  0  0
   -4.7800  -49.5900    5.2700 Cl  0  0  0  0  0  0  0  0  0  0  0  0
   -2.1000  -49.2800    5.6300 C   0  0  0  0  0  0  0  0  0  0  0  0
   -2.2500  -48.2700    5.2600 H   0  0  0  0  0  0  0  0  0  0  0  0
   -0.8300  -49.7000    6.0100 C   0  0  0  0  0  0  0  0  0  0  0  0
    0.3700  -48.9100    5.9700 C   0  0  0  0  0  0  0  0  0  0  0  0
    0.4000  -47.4900    5.5200 C   0  0  0  0  0  0  0  0  0  0  0  0
    1.1900  -47.3900    4.7800 H   0  0  0  0  0  0  0  0  0  0  0  0
   -0.5600  -47.2600    5.0600 H   0  0  0  0  0  0  0  0  0  0  0  0
    0.6500  -46.4800    6.6000 C   0  0  0  0  0  0  0  0  0  0  0  0
    0.5300  -45.4900    6.1500 H   0  0  0  0  0  0  0  0  0  0  0  0
    1.6900  -46.6000    6.9200 H   0  0  0  0  0  0  0  0  0  0  0  0
   -0.2000  -46.5200    7.8200 C   0  0  0  0  0  0  0  0  0  0  0  0
    0.0400  -45.6700    8.4600 H   0  0  0  0  0  0  0  0  0  0  0  0
    0.0000  -47.4400    8.3700 H   0  0  0  0  0  0  0  0  0  0  0  0
   -1.5400  -46.4700    7.4900 O   0  0  0  0  0  0  0  0  0  0  0  0
   -2.5500  -46.5300    8.4200 C   0  0  0  0  0  0  0  0  0  0  0  0
   -2.3700  -47.2100    9.6000 C   0  0  0  0  0  0  0  0  0  0  0  0
   -1.4300  -47.7100    9.8100 H   0  0  0  0  0  0  0  0  0  0  0  0
   -3.4200  -47.2400   10.5200 C   0  0  0  0  0  0  0  0  0  0  0  0
   -3.2900  -47.7700   11.4500 H   0  0  0  0  0  0  0  0  0  0  0  0
   -4.6300  -46.6100   10.2600 C   0  0  0  0  0  0  0  0  0  0  0  0
   -5.4300  -46.6400   10.9800 H   0  0  0  0  0  0  0  0  0  0  0  0
   -4.7900  -45.9300    9.0600 C   0  0  0  0  0  0  0  0  0  0  0  0
   -3.7400  -45.8800    8.1400 C   0  0  0  0  0  0  0  0  0  0  0  0
   -3.9100  -45.1800    6.9300 C   0  0  0  0  0  0  0  0  0  0  0  0
   -3.1000  -45.1400    6.2200 H   0  0  0  0  0  0  0  0  0  0  0  0
   -5.1100  -44.5300    6.6400 C   0  0  0  0  0  0  0  0  0  0  0  0
   -5.2300  -43.9900    5.7000 H   0  0  0  0  0  0  0  0  0  0  0  0
   -6.1700  -44.5700    7.5500 C   0  0  0  0  0  0  0  0  0  0  0  0
   -7.1000  -44.0700    7.3200 H   0  0  0  0  0  0  0  0  0  0  0  0
   -6.0200  -45.2600    8.7500 C   0  0  0  0  0  0  0  0  0  0  0  0
   -6.8400  -45.2900    9.4600 H   0  0  0  0  0  0  0  0  0  0  0  0
 17 18  1  0  0  0  0
 17 19  1  0  0  0  0
 13 14  1  0  0  0  0
 11 12  1  0  0  0  0
 16 17  1  0  0  0  0
 17 20  1  0  0  0  0
 11 13  2  0  0  0  0
 13 15  1  0  0  0  0
 38 39  1  0  0  0  0
  9 11  1  0  0  0  0
 15 16  1  0  0  0  0
  4 16  2  0  0  0  0
  6 15  2  0  0  0  0
 20 21  1  0  0  0  0
  9 10  1  0  0  0  0
  7  9  2  0  0  0  0
 36 37  1  0  0  0  0
  2  4  1  0  0  0  0
  4  5  1  0  0  0  0
  1  2  1  0  0  0  0
  6  7  1  0  0  0  0
  5  6  1  0  0  0  0
  2  3  2  0  0  0  0
  7  8  1  0  0  0  0
 20 22  1  0  0  0  0
 20 23  1  0  0  0  0
 36 38  2  0  0  0  0
 38 40  1  0  0  0  0
 35 36  1  0  0  0  0
 40 41  1  0  0  0  0
 23 26  1  0  0  0  0
 26 27  1  0  0  0  0
 40 42  2  0  0  0  0
 23 25  1  0  0  0  0
 23 24  1  0  0  0  0
 27 35  2  0  0  0  0
 34 35  1  0  0  0  0
 27 28  1  0  0  0  0
 34 42  1  0  0  0  0
 42 43  1  0  0  0  0
 32 34  2  0  0  0  0
 28 29  1  0  0  0  0
 28 30  2  0  0  0  0
 30 32  1  0  0  0  0
 32 33  1  0  0  0  0
 30 31  1  0  0  0  0
M  CHG  1   1  -1
M  END
$$$$
