CHEMBL3265006
 OpenBabel02152110423D
Structure written by MMmdl.
 51 54  0  0  1  0  0  0  0  0999 V2000
   -2.4212    4.6361   12.3150 C   0  0  0  0  0  0  0  0  0  0  0  0
   -1.0554    4.1831   12.0682 N   0  0  0  0  0  0  0  0  0  0  0  0
   -0.5783    3.7648   10.8955 C   0  0  0  0  0  0  0  0  0  0  0  0
   -1.2609    3.7178    9.8765 O   0  0  0  0  0  0  0  0  0  0  0  0
    0.8660    3.3707   10.9895 C   0  0  0  0  0  0  0  0  0  0  0  0
    1.7879    3.8078   10.0318 C   0  0  0  0  0  0  0  0  0  0  0  0
    3.1294    3.4499   10.1277 C   0  0  0  0  0  0  0  0  0  0  0  0
    3.5566    2.6280   11.1666 C   0  0  0  0  0  0  0  0  0  0  0  0
    2.6564    2.1560   12.1340 C   0  0  0  0  0  0  0  0  0  0  0  0
    1.3140    2.5576   12.0419 C   0  0  0  0  0  0  0  0  0  0  0  0
    3.1227    1.2406   13.2181 C   0  0  0  0  0  0  0  0  0  0  0  0
    4.4207    1.3039   13.7175 C   0  0  0  0  0  0  0  0  0  0  0  0
    4.7482    0.4921   14.7654 N   0  0  0  0  0  0  0  0  0  0  0  0
    5.8898    0.3836   15.5035 C   0  0  0  0  0  0  0  0  0  0  0  0
    5.5715   -0.5089   16.5177 C   0  0  0  0  0  0  0  0  0  0  0  0
    4.3818   -1.0543   16.3920 N   0  0  0  0  0  0  0  0  0  0  0  0
    3.8330   -0.4170   15.3252 C   0  0  0  0  0  0  0  0  0  0  0  0
    2.5452   -0.4689   14.7536 C   0  0  0  0  0  0  0  0  0  0  0  0
    1.5930   -1.3491   15.3060 N   0  0  0  0  0  0  0  0  0  0  0  0
    0.2220   -1.5829   15.0890 C   0  0  0  0  0  0  0  0  0  0  0  0
   -0.3863   -2.6106   15.8150 C   0  0  0  0  0  0  0  0  0  0  0  0
   -1.7497   -2.8673   15.6804 C   0  0  0  0  0  0  0  0  0  0  0  0
   -2.5261   -2.1057   14.8053 C   0  0  0  0  0  0  0  0  0  0  0  0
   -3.8740   -2.3535   14.7166 O   0  0  0  0  0  0  0  0  0  0  0  0
   -4.2555   -3.1029   13.5707 C   0  0  0  0  0  0  0  0  0  0  0  0
   -1.9389   -1.0760   14.0580 C   0  0  0  0  0  0  0  0  0  0  0  0
   -2.6991   -0.3052   13.2022 O   0  0  0  0  0  0  0  0  0  0  0  0
   -2.0020    0.6747   12.5251 C   0  0  0  0  0  0  0  0  0  0  0  0
   -0.5664   -0.8256   14.2115 C   0  0  0  0  0  0  0  0  0  0  0  0
    2.2178    0.3551   13.7190 N   0  0  0  0  0  0  0  0  0  0  0  0
   -2.5270    4.9174   13.3627 H   0  0  0  0  0  0  0  0  0  0  0  0
   -3.1185    3.8312   12.0826 H   0  0  0  0  0  0  0  0  0  0  0  0
   -2.6378    5.4979   11.6837 H   0  0  0  0  0  0  0  0  0  0  0  0
   -0.5302    4.2377   12.9293 H   0  0  0  0  0  0  0  0  0  0  0  0
    1.4564    4.4350    9.2166 H   0  0  0  0  0  0  0  0  0  0  0  0
    3.8342    3.7939    9.3845 H   0  0  0  0  0  0  0  0  0  0  0  0
    4.5934    2.3309   11.2002 H   0  0  0  0  0  0  0  0  0  0  0  0
    0.6053    2.2130   12.7810 H   0  0  0  0  0  0  0  0  0  0  0  0
    5.1701    2.0030   13.3719 H   0  0  0  0  0  0  0  0  0  0  0  0
    6.7656    0.9739   15.2897 H   0  0  0  0  0  0  0  0  0  0  0  0
    6.2089   -0.8330   17.3301 H   0  0  0  0  0  0  0  0  0  0  0  0
    2.0245   -1.8853   16.0480 H   0  0  0  0  0  0  0  0  0  0  0  0
    0.1911   -3.2101   16.5029 H   0  0  0  0  0  0  0  0  0  0  0  0
   -2.2100   -3.6528   16.2607 H   0  0  0  0  0  0  0  0  0  0  0  0
   -4.0223   -2.5652   12.6508 H   0  0  0  0  0  0  0  0  0  0  0  0
   -5.3298   -3.2850   13.5913 H   0  0  0  0  0  0  0  0  0  0  0  0
   -3.7492   -4.0689   13.5480 H   0  0  0  0  0  0  0  0  0  0  0  0
   -2.6852    1.2258   11.8788 H   0  0  0  0  0  0  0  0  0  0  0  0
   -1.2219    0.2131   11.9198 H   0  0  0  0  0  0  0  0  0  0  0  0
   -1.5484    1.3591   13.2420 H   0  0  0  0  0  0  0  0  0  0  0  0
   -0.1547   -0.0168   13.6337 H   0  0  0  0  0  0  0  0  0  0  0  0
  1  2  1  0  0  0  0
  1 31  1  0  0  0  0
  1 32  1  0  0  0  0
  1 33  1  0  0  0  0
  2  3  1  0  0  0  0
  2 34  1  0  0  0  0
  3  4  2  0  0  0  0
  3  5  1  0  0  0  0
  5  6  2  0  0  0  0
  5 10  1  0  0  0  0
  6  7  1  0  0  0  0
  6 35  1  0  0  0  0
  7  8  2  0  0  0  0
  7 36  1  0  0  0  0
  8  9  1  0  0  0  0
  8 37  1  0  0  0  0
  9 10  2  0  0  0  0
  9 11  1  0  0  0  0
 10 38  1  0  0  0  0
 11 12  2  0  0  0  0
 11 30  1  0  0  0  0
 12 13  1  0  0  0  0
 12 39  1  0  0  0  0
 13 14  1  0  0  0  0
 13 17  1  0  0  0  0
 14 15  2  0  0  0  0
 14 40  1  0  0  0  0
 15 16  1  0  0  0  0
 15 41  1  0  0  0  0
 16 17  2  0  0  0  0
 17 18  1  0  0  0  0
 18 19  1  0  0  0  0
 18 30  2  0  0  0  0
 19 20  1  0  0  0  0
 19 42  1  0  0  0  0
 20 21  2  0  0  0  0
 20 29  1  0  0  0  0
 21 22  1  0  0  0  0
 21 43  1  0  0  0  0
 22 23  2  0  0  0  0
 22 44  1  0  0  0  0
 23 24  1  0  0  0  0
 23 26  1  0  0  0  0
 24 25  1  0  0  0  0
 25 45  1  0  0  0  0
 25 46  1  0  0  0  0
 25 47  1  0  0  0  0
 26 27  1  0  0  0  0
 26 29  2  0  0  0  0
 27 28  1  0  0  0  0
 28 48  1  0  0  0  0
 28 49  1  0  0  0  0
 28 50  1  0  0  0  0
 29 51  1  0  0  0  0
M  END
>  <IC50[nM]>
50.2

$$$$
