@<TRIPOS>MOLECULE
CHEMBL3265037
 56 61 0 0 0
SMALL
GASTEIGER
****
Structure written by MMmdl.
@<TRIPOS>ATOM
      1 C          -2.1744    0.6943   12.3856 C.3     1  LIG1        0.0789
      2 O          -2.7023   -0.3474   13.1823 O.3     1  LIG1       -0.4932
      3 C          -1.9098   -1.0981   14.0384 C.ar    1  LIG1        0.1428
      4 C          -0.5310   -0.8294   14.1803 C.ar    1  LIG1        0.0031
      5 C           0.2355   -1.5834   15.0946 C.ar    1  LIG1        0.0361
      6 N           1.6117   -1.3596   15.3361 N.pl3   1  LIG1       -0.2964
      7 C           2.5319   -0.4372   14.7774 C.ar    1  LIG1        0.1669
      8 N           2.1598    0.3941   13.7549 N.ar    1  LIG1       -0.2267
      9 C           3.0944    1.2396   13.2243 C.ar    1  LIG1        0.0897
     10 C           4.4043    1.2833   13.6944 C.ar    1  LIG1        0.0373
     11 N           4.7385    0.4947   14.7556 N.ar    1  LIG1       -0.3018
     12 C           5.8973    0.3913   15.4817 C.ar    1  LIG1        0.0294
     13 C           5.5996   -0.5416   16.5121 C.ar    1  LIG1        0.0465
     14 N           4.3864   -1.0493   16.3602 N.ar    1  LIG1       -0.2330
     15 C           3.8356   -0.3858   15.3271 C.ar    1  LIG1        0.1784
     16 C           2.6225    2.1542   12.1213 C.ar    1  LIG1        0.0039
     17 C           3.5396    2.6409   11.1644 C.ar    1  LIG1       -0.0518
     18 C           3.1535    3.4630   10.1051 C.ar    1  LIG1       -0.0505
     19 C           1.8086    3.8199   10.0132 C.ar    1  LIG1        0.0195
     20 C           0.9978    4.6054    9.1182 C.ar    1  LIG1        0.0569
     21 N          -0.2423    4.6093    9.5224 N.ar    1  LIG1       -0.1812
     22 N          -0.3299    3.8832   10.6368 N.ar    1  LIG1       -0.2769
     23 C           0.8842    3.3496   10.9964 C.ar    1  LIG1        0.0663
     24 C           1.2618    2.5164   12.0586 C.ar    1  LIG1       -0.0271
     25 C          -0.3784   -2.5892   15.8339 C.ar    1  LIG1       -0.0385
     26 C          -1.7343   -2.8306   15.7168 C.ar    1  LIG1       -0.0353
     27 C          -2.5117   -2.0982   14.8261 C.ar    1  LIG1        0.0722
     28 N          -3.8736   -2.3467   14.7445 N.pl3   1  LIG1       -0.3227
     29 C          -4.6489   -2.3804   13.4950 C.3     1  LIG1        0.0358
     30 C          -5.4028   -3.7252   13.3613 C.3     1  LIG1        0.0634
     31 O          -6.2201   -3.9495   14.5061 O.3     1  LIG1       -0.3767
     32 C          -5.4732   -4.0046   15.7182 C.3     1  LIG1        0.0634
     33 C          -4.7007   -2.7060   15.8980 C.3     1  LIG1        0.0358
     34 H          -2.9904    1.1363   11.8091 H       1  LIG1        0.0660
     35 H          -1.4428    0.2907   11.6870 H       1  LIG1        0.0660
     36 H          -1.7364    1.4787   13.0041 H       1  LIG1        0.0660
     37 H          -0.0893   -0.0406   13.6077 H       1  LIG1        0.0673
     38 H           2.0034   -1.9475   16.0618 H       1  LIG1        0.1537
     39 H           5.1625    1.9521   13.3194 H       1  LIG1        0.0835
     40 H           6.7773    0.9830   15.2753 H       1  LIG1        0.0829
     41 H           6.2437   -0.8354   17.3270 H       1  LIG1        0.0845
     42 H           4.5739    2.3509   11.2352 H       1  LIG1        0.0624
     43 H           3.8782    3.8039    9.3734 H       1  LIG1        0.0625
     44 H           1.3039    5.1373    8.2326 H       1  LIG1        0.0854
     45 H          -1.2154    3.7754   11.1065 H       1  LIG1        0.1889
     46 H           0.5533    2.1677   12.8004 H       1  LIG1        0.0645
     47 H           0.2091   -3.1801   16.5238 H       1  LIG1        0.0637
     48 H          -2.1890   -3.6122   16.3096 H       1  LIG1        0.0638
     49 H          -5.3854   -1.6032   13.4697 H       1  LIG1        0.0486
     50 H          -4.0001   -2.2760   12.6217 H       1  LIG1        0.0486
     51 H          -6.0319   -3.7256   12.4721 H       1  LIG1        0.0575
     52 H          -4.6910   -4.5475   13.2566 H       1  LIG1        0.0575
     53 H          -6.1314   -4.1557   16.5745 H       1  LIG1        0.0575
     54 H          -4.7486   -4.8187   15.6925 H       1  LIG1        0.0575
     55 H          -5.3882   -1.8709   16.0634 H       1  LIG1        0.0486
     56 H          -4.1072   -2.7162   16.8113 H       1  LIG1        0.0486
@<TRIPOS>BOND
     1     1     2    1
     2     1    34    1
     3     1    35    1
     4     1    36    1
     5     2     3    1
     6     3     4   ar
     7     3    27   ar
     8     4     5   ar
     9     4    37    1
    10     5     6    1
    11     5    25   ar
    12     6     7    1
    13     6    38    1
    14     7     8   ar
    15     7    15   ar
    16     8     9   ar
    17     9    10   ar
    18     9    16    1
    19    10    11   ar
    20    10    39    1
    21    11    12   ar
    22    11    15   ar
    23    12    13   ar
    24    12    40    1
    25    13    14   ar
    26    13    41    1
    27    14    15   ar
    28    16    17   ar
    29    16    24   ar
    30    17    18   ar
    31    17    42    1
    32    18    19   ar
    33    18    43    1
    34    19    20   ar
    35    19    23   ar
    36    20    21   ar
    37    20    44    1
    38    21    22   ar
    39    22    23   ar
    40    22    45    1
    41    23    24   ar
    42    24    46    1
    43    25    26   ar
    44    25    47    1
    45    26    27   ar
    46    26    48    1
    47    27    28    1
    48    28    29    1
    49    28    33    1
    50    29    30    1
    51    29    49    1
    52    29    50    1
    53    30    31    1
    54    30    51    1
    55    30    52    1
    56    31    32    1
    57    32    33    1
    58    32    53    1
    59    32    54    1
    60    33    55    1
    61    33    56    1
