@<TRIPOS>MOLECULE
CHEMBL3265035
 51 55 0 0 0
SMALL
GASTEIGER
****
Structure written by MMmdl.
@<TRIPOS>ATOM
      1 C          -4.5368   -3.3612   15.6406 C.3     1  LIG1        0.0007
      2 N          -3.9561   -2.3810   14.7221 N.pl3   1  LIG1       -0.3308
      3 C          -4.6759   -2.0519   13.4970 C.3     1  LIG1        0.0351
      4 C          -4.8094   -3.1968   12.4731 C.3     1  LIG1        0.0598
      5 O          -5.3909   -2.7945   11.2538 O.3     1  LIG1       -0.3935
      6 C          -2.5380   -2.1167   14.8106 C.ar    1  LIG1        0.0296
      7 C          -1.9279   -1.0927   14.0460 C.ar    1  LIG1       -0.0389
      8 C          -0.5515   -0.8247   14.1929 C.ar    1  LIG1       -0.0388
      9 C           0.2181   -1.5869   15.0916 C.ar    1  LIG1        0.0326
     10 N           1.6005   -1.3598   15.3303 N.pl3   1  LIG1       -0.2965
     11 C           2.5326   -0.4516   14.7667 C.ar    1  LIG1        0.1669
     12 N           2.1715    0.3794   13.7341 N.ar    1  LIG1       -0.2267
     13 C           3.1060    1.2367   13.2184 C.ar    1  LIG1        0.0897
     14 C           4.4145    1.2803   13.6968 C.ar    1  LIG1        0.0373
     15 N           4.7440    0.4821   14.7570 N.ar    1  LIG1       -0.3018
     16 C           5.8987    0.3805   15.4839 C.ar    1  LIG1        0.0294
     17 C           5.5936   -0.5339   16.5243 C.ar    1  LIG1        0.0465
     18 N           4.3807   -1.0510   16.3702 N.ar    1  LIG1       -0.2330
     19 C           3.8367   -0.4037   15.3198 C.ar    1  LIG1        0.1784
     20 C           2.6315    2.1595   12.1222 C.ar    1  LIG1        0.0039
     21 C           3.5425    2.6427   11.1618 C.ar    1  LIG1       -0.0518
     22 C           3.1486    3.4642   10.1071 C.ar    1  LIG1       -0.0505
     23 C           1.8051    3.8185   10.0149 C.ar    1  LIG1        0.0195
     24 C           0.9940    4.5977    9.1169 C.ar    1  LIG1        0.0569
     25 N          -0.2465    4.6060    9.5156 N.ar    1  LIG1       -0.1812
     26 N          -0.3325    3.8910   10.6299 N.ar    1  LIG1       -0.2769
     27 C           0.8808    3.3589   10.9978 C.ar    1  LIG1        0.0663
     28 C           1.2718    2.5352   12.0615 C.ar    1  LIG1       -0.0271
     29 C          -0.3941   -2.6060   15.8167 C.ar    1  LIG1       -0.0388
     30 C          -1.7488   -2.8660   15.6892 C.ar    1  LIG1       -0.0389
     31 H          -4.1278   -4.3576   15.4842 H       1  LIG1        0.0428
     32 H          -5.6178   -3.4125   15.4956 H       1  LIG1        0.0428
     33 H          -4.3606   -3.0644   16.6771 H       1  LIG1        0.0428
     34 H          -4.3056   -1.1886   12.9786 H       1  LIG1        0.0486
     35 H          -5.6839   -1.7325   13.7631 H       1  LIG1        0.0486
     36 H          -5.1990   -4.1205   12.9069 H       1  LIG1        0.0573
     37 H          -3.8094   -3.5657   12.2747 H       1  LIG1        0.0573
     38 H          -4.7580   -2.2447   10.7741 H       1  LIG1        0.2095
     39 H          -2.5097   -0.4888   13.3742 H       1  LIG1        0.0637
     40 H          -0.1087   -0.0249   13.6285 H       1  LIG1        0.0637
     41 H           1.9936   -1.9427   16.0592 H       1  LIG1        0.1537
     42 H           5.1750    1.9595   13.3389 H       1  LIG1        0.0835
     43 H           6.7815    0.9622   15.2772 H       1  LIG1        0.0829
     44 H           6.2344   -0.8078   17.3485 H       1  LIG1        0.0845
     45 H           4.5815    2.3487   11.2258 H       1  LIG1        0.0624
     46 H           3.8643    3.8051    9.3767 H       1  LIG1        0.0625
     47 H           1.3025    5.1220    8.2278 H       1  LIG1        0.0854
     48 H          -1.2233    3.7862   11.0983 H       1  LIG1        0.1889
     49 H           0.5648    2.1990   12.8082 H       1  LIG1        0.0645
     50 H           0.1950   -3.1981   16.5054 H       1  LIG1        0.0637
     51 H          -2.1858   -3.6564   16.2764 H       1  LIG1        0.0637
@<TRIPOS>BOND
     1     1     2    1
     2     1    31    1
     3     1    32    1
     4     1    33    1
     5     2     3    1
     6     2     6    1
     7     3     4    1
     8     3    34    1
     9     3    35    1
    10     4     5    1
    11     4    36    1
    12     4    37    1
    13     5    38    1
    14     6     7   ar
    15     6    30   ar
    16     7     8   ar
    17     7    39    1
    18     8     9   ar
    19     8    40    1
    20     9    10    1
    21     9    29   ar
    22    10    11    1
    23    10    41    1
    24    11    12   ar
    25    11    19   ar
    26    12    13   ar
    27    13    14   ar
    28    13    20    1
    29    14    15   ar
    30    14    42    1
    31    15    16   ar
    32    15    19   ar
    33    16    17   ar
    34    16    43    1
    35    17    18   ar
    36    17    44    1
    37    18    19   ar
    38    20    21   ar
    39    20    28   ar
    40    21    22   ar
    41    21    45    1
    42    22    23   ar
    43    22    46    1
    44    23    24   ar
    45    23    27   ar
    46    24    25   ar
    47    24    47    1
    48    25    26   ar
    49    26    27   ar
    50    26    48    1
    51    27    28   ar
    52    28    49    1
    53    29    30   ar
    54    29    50    1
    55    30    51    1
