CHEMBL3265018
 OpenBabel02152110423D
Structure written by MMmdl.
 47 51  0  0  1  0  0  0  0  0999 V2000
   -4.2567   -3.1043   13.5693 C   0  0  0  0  0  0  0  0  0  0  0  0
   -3.8736   -2.3603   14.7157 O   0  0  0  0  0  0  0  0  0  0  0  0
   -2.5257   -2.1109   14.8170 C   0  0  0  0  0  0  0  0  0  0  0  0
   -1.7457   -2.8699   15.6819 C   0  0  0  0  0  0  0  0  0  0  0  0
   -0.3904   -2.6103   15.8138 C   0  0  0  0  0  0  0  0  0  0  0  0
    0.2205   -1.5845   15.0866 C   0  0  0  0  0  0  0  0  0  0  0  0
    1.6039   -1.3601   15.3216 N   0  0  0  0  0  0  0  0  0  0  0  0
    2.5369   -0.4474   14.7595 C   0  0  0  0  0  0  0  0  0  0  0  0
    2.1817    0.3719   13.7240 N   0  0  0  0  0  0  0  0  0  0  0  0
    3.1138    1.2387   13.2179 C   0  0  0  0  0  0  0  0  0  0  0  0
    4.4187    1.2840   13.7027 C   0  0  0  0  0  0  0  0  0  0  0  0
    4.7466    0.4880   14.7600 N   0  0  0  0  0  0  0  0  0  0  0  0
    5.8977    0.3770   15.4865 C   0  0  0  0  0  0  0  0  0  0  0  0
    5.5876   -0.5233   16.5295 C   0  0  0  0  0  0  0  0  0  0  0  0
    4.3760   -1.0434   16.3734 N   0  0  0  0  0  0  0  0  0  0  0  0
    3.8370   -0.3940   15.3257 C   0  0  0  0  0  0  0  0  0  0  0  0
    2.6359    2.1614   12.1223 C   0  0  0  0  0  0  0  0  0  0  0  0
    1.3054    2.6314   12.1303 C   0  0  0  0  0  0  0  0  0  0  0  0
    0.8262    3.5165   11.1628 C   0  0  0  0  0  0  0  0  0  0  0  0
    1.7006    3.9330   10.1707 C   0  0  0  0  0  0  0  0  0  0  0  0
    1.4948    4.8131    9.1162 N   0  0  0  0  0  0  0  0  0  0  0  0
    2.6280    4.8521    8.4793 C   0  0  0  0  0  0  0  0  0  0  0  0
    3.5731    4.0579    9.0246 N   0  0  0  0  0  0  0  0  0  0  0  0
    3.0312    3.4473   10.1317 C   0  0  0  0  0  0  0  0  0  0  0  0
    3.5261    2.5537   11.0860 C   0  0  0  0  0  0  0  0  0  0  0  0
   -0.5552   -0.8189   14.1920 C   0  0  0  0  0  0  0  0  0  0  0  0
   -1.9445   -1.0884   14.0613 C   0  0  0  0  0  0  0  0  0  0  0  0
   -2.7533   -0.3562   13.2050 O   0  0  0  0  0  0  0  0  0  0  0  0
   -2.2327    0.6448   12.3521 C   0  0  0  0  0  0  0  0  0  0  0  0
   -5.3358   -3.2523   13.5866 H   0  0  0  0  0  0  0  0  0  0  0  0
   -3.7891   -4.0896   13.5591 H   0  0  0  0  0  0  0  0  0  0  0  0
   -4.0124   -2.5806   12.6438 H   0  0  0  0  0  0  0  0  0  0  0  0
   -2.1936   -3.6623   16.2628 H   0  0  0  0  0  0  0  0  0  0  0  0
    0.1988   -3.2068   16.4980 H   0  0  0  0  0  0  0  0  0  0  0  0
    1.9908   -1.9341   16.0530 H   0  0  0  0  0  0  0  0  0  0  0  0
    5.1808    1.9634   13.3425 H   0  0  0  0  0  0  0  0  0  0  0  0
    6.7856    0.9484   15.2760 H   0  0  0  0  0  0  0  0  0  0  0  0
    6.2287   -0.7926   17.3523 H   0  0  0  0  0  0  0  0  0  0  0  0
    0.6366    2.3172   12.9226 H   0  0  0  0  0  0  0  0  0  0  0  0
   -0.1813    3.8713   11.1916 H   0  0  0  0  0  0  0  0  0  0  0  0
    2.8538    5.4380    7.6007 H   0  0  0  0  0  0  0  0  0  0  0  0
    4.5054    3.9747    8.6412 H   0  0  0  0  0  0  0  0  0  0  0  0
    4.5263    2.1799   11.0411 H   0  0  0  0  0  0  0  0  0  0  0  0
   -0.1081   -0.0326   13.6249 H   0  0  0  0  0  0  0  0  0  0  0  0
   -3.0507    1.0730   11.7701 H   0  0  0  0  0  0  0  0  0  0  0  0
   -1.5099    0.2344   11.6497 H   0  0  0  0  0  0  0  0  0  0  0  0
   -1.7820    1.4500   12.9277 H   0  0  0  0  0  0  0  0  0  0  0  0
  1  2  1  0  0  0  0
  1 30  1  0  0  0  0
  1 31  1  0  0  0  0
  1 32  1  0  0  0  0
  2  3  1  0  0  0  0
  3  4  2  0  0  0  0
  3 27  1  0  0  0  0
  4  5  1  0  0  0  0
  4 33  1  0  0  0  0
  5  6  2  0  0  0  0
  5 34  1  0  0  0  0
  6  7  1  0  0  0  0
  6 26  1  0  0  0  0
  7  8  1  0  0  0  0
  7 35  1  0  0  0  0
  8  9  2  0  0  0  0
  8 16  1  0  0  0  0
  9 10  1  0  0  0  0
 10 11  2  0  0  0  0
 10 17  1  0  0  0  0
 11 12  1  0  0  0  0
 11 36  1  0  0  0  0
 12 13  1  0  0  0  0
 12 16  1  0  0  0  0
 13 14  2  0  0  0  0
 13 37  1  0  0  0  0
 14 15  1  0  0  0  0
 14 38  1  0  0  0  0
 15 16  2  0  0  0  0
 17 18  2  0  0  0  0
 17 25  1  0  0  0  0
 18 19  1  0  0  0  0
 18 39  1  0  0  0  0
 19 20  2  0  0  0  0
 19 40  1  0  0  0  0
 20 21  1  0  0  0  0
 20 24  1  0  0  0  0
 21 22  2  0  0  0  0
 22 23  1  0  0  0  0
 22 41  1  0  0  0  0
 23 24  1  0  0  0  0
 23 42  1  0  0  0  0
 24 25  2  0  0  0  0
 25 43  1  0  0  0  0
 26 27  2  0  0  0  0
 26 44  1  0  0  0  0
 27 28  1  0  0  0  0
 28 29  1  0  0  0  0
 29 45  1  0  0  0  0
 29 46  1  0  0  0  0
 29 47  1  0  0  0  0
M  END
>  <IC50[nM]>
6.3

$$$$
