CHEMBL3265012
 OpenBabel02152110423D
Structure written by MMmdl.
 48 51  0  0  1  0  0  0  0  0999 V2000
   -4.2558   -3.1075   13.5651 C   0  0  0  0  0  0  0  0  0  0  0  0
   -3.8718   -2.3575   14.7067 O   0  0  0  0  0  0  0  0  0  0  0  0
   -2.5253   -2.1086   14.8120 C   0  0  0  0  0  0  0  0  0  0  0  0
   -1.7526   -2.8682   15.6804 C   0  0  0  0  0  0  0  0  0  0  0  0
   -0.3955   -2.6067   15.8218 C   0  0  0  0  0  0  0  0  0  0  0  0
    0.2199   -1.5810   15.0999 C   0  0  0  0  0  0  0  0  0  0  0  0
    1.6019   -1.3576   15.3437 N   0  0  0  0  0  0  0  0  0  0  0  0
    2.5286   -0.4382   14.7882 C   0  0  0  0  0  0  0  0  0  0  0  0
    2.1607    0.3911   13.7686 N   0  0  0  0  0  0  0  0  0  0  0  0
    3.1048    1.2259   13.2324 C   0  0  0  0  0  0  0  0  0  0  0  0
    4.4053    1.2717   13.7035 C   0  0  0  0  0  0  0  0  0  0  0  0
    4.7404    0.4886   14.7629 N   0  0  0  0  0  0  0  0  0  0  0  0
    5.8950    0.3907   15.4847 C   0  0  0  0  0  0  0  0  0  0  0  0
    5.6038   -0.5479   16.5103 C   0  0  0  0  0  0  0  0  0  0  0  0
    4.3901   -1.0599   16.3616 N   0  0  0  0  0  0  0  0  0  0  0  0
    3.8363   -0.3960   15.3347 C   0  0  0  0  0  0  0  0  0  0  0  0
    2.6462    2.1273   12.1323 C   0  0  0  0  0  0  0  0  0  0  0  0
    3.5538    2.6360   11.1838 C   0  0  0  0  0  0  0  0  0  0  0  0
    3.1137    3.4699   10.1556 C   0  0  0  0  0  0  0  0  0  0  0  0
    1.7615    3.8212   10.0639 C   0  0  0  0  0  0  0  0  0  0  0  0
    1.3043    4.7272    8.9268 C   0  0  0  0  0  0  0  0  0  0  0  0
    2.1134    5.3522    8.2339 O   0  0  0  0  0  0  0  0  0  0  0  0
   -0.0095    4.7686    8.7196 N   0  0  0  0  0  0  0  0  0  0  0  0
    0.8533    3.3219   11.0251 C   0  0  0  0  0  0  0  0  0  0  0  0
   -0.4584    3.6572   10.9807 F   0  0  0  0  0  0  0  0  0  0  0  0
    1.2985    2.4859   12.0366 C   0  0  0  0  0  0  0  0  0  0  0  0
   -0.5548   -0.8117   14.1978 C   0  0  0  0  0  0  0  0  0  0  0  0
   -1.9397   -1.0798   14.0626 C   0  0  0  0  0  0  0  0  0  0  0  0
   -2.7418   -0.3359   13.2115 O   0  0  0  0  0  0  0  0  0  0  0  0
   -2.2196    0.7089   12.4090 C   0  0  0  0  0  0  0  0  0  0  0  0
   -5.3371   -3.2496   13.5811 H   0  0  0  0  0  0  0  0  0  0  0  0
   -3.7876   -4.0927   13.5589 H   0  0  0  0  0  0  0  0  0  0  0  0
   -4.0021   -2.5904   12.6387 H   0  0  0  0  0  0  0  0  0  0  0  0
   -2.2126   -3.6572   16.2596 H   0  0  0  0  0  0  0  0  0  0  0  0
    0.1938   -3.1989   16.5120 H   0  0  0  0  0  0  0  0  0  0  0  0
    1.9968   -1.9524   16.0600 H   0  0  0  0  0  0  0  0  0  0  0  0
    5.1643    1.9375   13.3203 H   0  0  0  0  0  0  0  0  0  0  0  0
    6.7745    0.9863   15.2762 H   0  0  0  0  0  0  0  0  0  0  0  0
    6.2506   -0.8438   17.3184 H   0  0  0  0  0  0  0  0  0  0  0  0
    4.6006    2.3663   11.2383 H   0  0  0  0  0  0  0  0  0  0  0  0
    3.8176    3.8358    9.4198 H   0  0  0  0  0  0  0  0  0  0  0  0
   -0.3831    5.3154    7.9569 H   0  0  0  0  0  0  0  0  0  0  0  0
   -0.6305    4.2313    9.2991 H   0  0  0  0  0  0  0  0  0  0  0  0
    0.5971    2.1203   12.7706 H   0  0  0  0  0  0  0  0  0  0  0  0
   -0.1130   -0.0200   13.6277 H   0  0  0  0  0  0  0  0  0  0  0  0
   -3.0413    1.1202   11.8191 H   0  0  0  0  0  0  0  0  0  0  0  0
   -1.4622    0.3434   11.7132 H   0  0  0  0  0  0  0  0  0  0  0  0
   -1.8206    1.5118   13.0307 H   0  0  0  0  0  0  0  0  0  0  0  0
  1  2  1  0  0  0  0
  1 31  1  0  0  0  0
  1 32  1  0  0  0  0
  1 33  1  0  0  0  0
  2  3  1  0  0  0  0
  3  4  2  0  0  0  0
  3 28  1  0  0  0  0
  4  5  1  0  0  0  0
  4 34  1  0  0  0  0
  5  6  2  0  0  0  0
  5 35  1  0  0  0  0
  6  7  1  0  0  0  0
  6 27  1  0  0  0  0
  7  8  1  0  0  0  0
  7 36  1  0  0  0  0
  8  9  2  0  0  0  0
  8 16  1  0  0  0  0
  9 10  1  0  0  0  0
 10 11  2  0  0  0  0
 10 17  1  0  0  0  0
 11 12  1  0  0  0  0
 11 37  1  0  0  0  0
 12 13  1  0  0  0  0
 12 16  1  0  0  0  0
 13 14  2  0  0  0  0
 13 38  1  0  0  0  0
 14 15  1  0  0  0  0
 14 39  1  0  0  0  0
 15 16  2  0  0  0  0
 17 18  2  0  0  0  0
 17 26  1  0  0  0  0
 18 19  1  0  0  0  0
 18 40  1  0  0  0  0
 19 20  2  0  0  0  0
 19 41  1  0  0  0  0
 20 21  1  0  0  0  0
 20 24  1  0  0  0  0
 21 22  2  0  0  0  0
 21 23  1  0  0  0  0
 23 42  1  0  0  0  0
 23 43  1  0  0  0  0
 24 25  1  0  0  0  0
 24 26  2  0  0  0  0
 26 44  1  0  0  0  0
 27 28  2  0  0  0  0
 27 45  1  0  0  0  0
 28 29  1  0  0  0  0
 29 30  1  0  0  0  0
 30 46  1  0  0  0  0
 30 47  1  0  0  0  0
 30 48  1  0  0  0  0
M  END
>  <IC50[nM]>
18.6

$$$$
