@<TRIPOS>MOLECULE
CHEMBL3265014
 52 55 0 0 0
SMALL
GASTEIGER
****
Structure written by MMmdl.
@<TRIPOS>ATOM
      1 C          -4.2555   -3.1029   13.5707 C.3     1  LIG1        0.0790
      2 O          -3.8740   -2.3535   14.7166 O.3     1  LIG1       -0.4915
      3 C          -2.5261   -2.1057   14.8053 C.ar    1  LIG1        0.1616
      4 C          -1.7497   -2.8673   15.6804 C.ar    1  LIG1       -0.0146
      5 C          -0.3863   -2.6106   15.8150 C.ar    1  LIG1       -0.0368
      6 C           0.2220   -1.5829   15.0890 C.ar    1  LIG1        0.0362
      7 N           1.5930   -1.3491   15.3060 N.pl3   1  LIG1       -0.2964
      8 C           2.5452   -0.4689   14.7536 C.ar    1  LIG1        0.1669
      9 N           2.2178    0.3551   13.7190 N.ar    1  LIG1       -0.2267
     10 C           3.1227    1.2406   13.2181 C.ar    1  LIG1        0.0898
     11 C           4.4207    1.3039   13.7175 C.ar    1  LIG1        0.0373
     12 N           4.7482    0.4921   14.7654 N.ar    1  LIG1       -0.3018
     13 C           5.8898    0.3836   15.5035 C.ar    1  LIG1        0.0294
     14 C           5.5715   -0.5089   16.5177 C.ar    1  LIG1        0.0465
     15 N           4.3818   -1.0543   16.3920 N.ar    1  LIG1       -0.2330
     16 C           3.8330   -0.4170   15.3252 C.ar    1  LIG1        0.1784
     17 C           2.6564    2.1560   12.1340 C.ar    1  LIG1        0.0053
     18 C           3.5566    2.6280   11.1666 C.ar    1  LIG1       -0.0516
     19 C           3.1294    3.4499   10.1277 C.ar    1  LIG1       -0.0455
     20 C           1.7879    3.8078   10.0318 C.ar    1  LIG1        0.0781
     21 C           1.3279    4.6787    8.9005 C.2     1  LIG1        0.2451
     22 O           0.1733    5.0540    8.7192 O.2     1  LIG1       -0.2703
     23 N           2.3332    5.0113    8.0903 N.am    1  LIG1       -0.3252
     24 C           0.8660    3.3707   10.9895 C.ar    1  LIG1        0.1328
     25 O          -0.4627    3.7335   10.9031 O.3     1  LIG1       -0.4943
     26 C          -1.2689    3.2382   11.9077 C.3     1  LIG1        0.0788
     27 C           1.3140    2.5576   12.0419 C.ar    1  LIG1       -0.0100
     28 C          -0.5664   -0.8256   14.2115 C.ar    1  LIG1        0.0049
     29 C          -1.9389   -1.0760   14.0580 C.ar    1  LIG1        0.1632
     30 O          -2.6991   -0.3052   13.2022 O.3     1  LIG1       -0.4914
     31 C          -2.0020    0.6747   12.5251 C.3     1  LIG1        0.0790
     32 H          -5.3281   -3.2944   13.5971 H       1  LIG1        0.0660
     33 H          -3.7409   -4.0644   13.5414 H       1  LIG1        0.0660
     34 H          -4.0324   -2.5598   12.6514 H       1  LIG1        0.0660
     35 H          -2.2100   -3.6528   16.2607 H       1  LIG1        0.0656
     36 H           0.1910   -3.2101   16.5030 H       1  LIG1        0.0637
     37 H           2.0247   -1.8856   16.0476 H       1  LIG1        0.1537
     38 H           5.1702    2.0029   13.3720 H       1  LIG1        0.0835
     39 H           6.7655    0.9739   15.2896 H       1  LIG1        0.0829
     40 H           6.2092   -0.8329   17.3299 H       1  LIG1        0.0845
     41 H           4.5935    2.3311   11.2005 H       1  LIG1        0.0624
     42 H           3.8342    3.7941    9.3846 H       1  LIG1        0.0626
     43 H           2.2554    5.5897    7.2660 H       1  LIG1        0.1453
     44 H           3.2955    4.7255    8.2018 H       1  LIG1        0.1453
     45 H          -2.2930    3.5778   11.7524 H       1  LIG1        0.0660
     46 H          -0.9095    3.5968   12.8721 H       1  LIG1        0.0660
     47 H          -1.2412    2.1486   11.8919 H       1  LIG1        0.0660
     48 H           0.6053    2.2127   12.7810 H       1  LIG1        0.0661
     49 H          -0.1548   -0.0169   13.6336 H       1  LIG1        0.0674
     50 H          -2.6852    1.2257   11.8788 H       1  LIG1        0.0660
     51 H          -1.2219    0.2131   11.9198 H       1  LIG1        0.0660
     52 H          -1.5485    1.3591   13.2420 H       1  LIG1        0.0660
@<TRIPOS>BOND
     1     1     2    1
     2     1    32    1
     3     1    33    1
     4     1    34    1
     5     2     3    1
     6     3     4   ar
     7     3    29   ar
     8     4     5   ar
     9     4    35    1
    10     5     6   ar
    11     5    36    1
    12     6     7    1
    13     6    28   ar
    14     7     8    1
    15     7    37    1
    16     8     9   ar
    17     8    16   ar
    18     9    10   ar
    19    10    11   ar
    20    10    17    1
    21    11    12   ar
    22    11    38    1
    23    12    13   ar
    24    12    16   ar
    25    13    14   ar
    26    13    39    1
    27    14    15   ar
    28    14    40    1
    29    15    16   ar
    30    17    18   ar
    31    17    27   ar
    32    18    19   ar
    33    18    41    1
    34    19    20   ar
    35    19    42    1
    36    20    21    1
    37    20    24   ar
    38    21    22    2
    39    21    23   am
    40    23    43    1
    41    23    44    1
    42    24    25    1
    43    24    27   ar
    44    25    26    1
    45    26    45    1
    46    26    46    1
    47    26    47    1
    48    27    48    1
    49    28    29   ar
    50    28    49    1
    51    29    30    1
    52    30    31    1
    53    31    50    1
    54    31    51    1
    55    31    52    1
