CHEMBL3265037
 OpenBabel02152110423D
Structure written by MMmdl.
 56 61  0  0  1  0  0  0  0  0999 V2000
   -2.1744    0.6943   12.3856 C   0  0  0  0  0  0  0  0  0  0  0  0
   -2.7023   -0.3474   13.1823 O   0  0  0  0  0  0  0  0  0  0  0  0
   -1.9098   -1.0981   14.0384 C   0  0  0  0  0  0  0  0  0  0  0  0
   -0.5310   -0.8294   14.1803 C   0  0  0  0  0  0  0  0  0  0  0  0
    0.2355   -1.5834   15.0946 C   0  0  0  0  0  0  0  0  0  0  0  0
    1.6117   -1.3596   15.3361 N   0  0  0  0  0  0  0  0  0  0  0  0
    2.5319   -0.4372   14.7774 C   0  0  0  0  0  0  0  0  0  0  0  0
    2.1598    0.3941   13.7549 N   0  0  0  0  0  0  0  0  0  0  0  0
    3.0944    1.2396   13.2243 C   0  0  0  0  0  0  0  0  0  0  0  0
    4.4043    1.2833   13.6944 C   0  0  0  0  0  0  0  0  0  0  0  0
    4.7385    0.4947   14.7556 N   0  0  0  0  0  0  0  0  0  0  0  0
    5.8973    0.3913   15.4817 C   0  0  0  0  0  0  0  0  0  0  0  0
    5.5996   -0.5416   16.5121 C   0  0  0  0  0  0  0  0  0  0  0  0
    4.3864   -1.0493   16.3602 N   0  0  0  0  0  0  0  0  0  0  0  0
    3.8356   -0.3858   15.3271 C   0  0  0  0  0  0  0  0  0  0  0  0
    2.6225    2.1542   12.1213 C   0  0  0  0  0  0  0  0  0  0  0  0
    3.5396    2.6409   11.1644 C   0  0  0  0  0  0  0  0  0  0  0  0
    3.1535    3.4630   10.1051 C   0  0  0  0  0  0  0  0  0  0  0  0
    1.8086    3.8199   10.0132 C   0  0  0  0  0  0  0  0  0  0  0  0
    0.9978    4.6054    9.1182 C   0  0  0  0  0  0  0  0  0  0  0  0
   -0.2423    4.6093    9.5224 N   0  0  0  0  0  0  0  0  0  0  0  0
   -0.3299    3.8832   10.6368 N   0  0  0  0  0  0  0  0  0  0  0  0
    0.8842    3.3496   10.9964 C   0  0  0  0  0  0  0  0  0  0  0  0
    1.2618    2.5164   12.0586 C   0  0  0  0  0  0  0  0  0  0  0  0
   -0.3784   -2.5892   15.8339 C   0  0  0  0  0  0  0  0  0  0  0  0
   -1.7343   -2.8306   15.7168 C   0  0  0  0  0  0  0  0  0  0  0  0
   -2.5117   -2.0982   14.8261 C   0  0  0  0  0  0  0  0  0  0  0  0
   -3.8736   -2.3467   14.7445 N   0  0  0  0  0  0  0  0  0  0  0  0
   -4.6489   -2.3804   13.4950 C   0  0  0  0  0  0  0  0  0  0  0  0
   -5.4028   -3.7252   13.3613 C   0  0  0  0  0  0  0  0  0  0  0  0
   -6.2201   -3.9495   14.5061 O   0  0  0  0  0  0  0  0  0  0  0  0
   -5.4732   -4.0046   15.7182 C   0  0  0  0  0  0  0  0  0  0  0  0
   -4.7007   -2.7060   15.8980 C   0  0  0  0  0  0  0  0  0  0  0  0
   -2.9904    1.1363   11.8091 H   0  0  0  0  0  0  0  0  0  0  0  0
   -1.4428    0.2907   11.6870 H   0  0  0  0  0  0  0  0  0  0  0  0
   -1.7364    1.4787   13.0041 H   0  0  0  0  0  0  0  0  0  0  0  0
   -0.0893   -0.0406   13.6077 H   0  0  0  0  0  0  0  0  0  0  0  0
    2.0034   -1.9475   16.0618 H   0  0  0  0  0  0  0  0  0  0  0  0
    5.1625    1.9521   13.3194 H   0  0  0  0  0  0  0  0  0  0  0  0
    6.7773    0.9830   15.2753 H   0  0  0  0  0  0  0  0  0  0  0  0
    6.2437   -0.8354   17.3270 H   0  0  0  0  0  0  0  0  0  0  0  0
    4.5739    2.3509   11.2352 H   0  0  0  0  0  0  0  0  0  0  0  0
    3.8782    3.8039    9.3734 H   0  0  0  0  0  0  0  0  0  0  0  0
    1.3039    5.1373    8.2326 H   0  0  0  0  0  0  0  0  0  0  0  0
   -1.2154    3.7754   11.1065 H   0  0  0  0  0  0  0  0  0  0  0  0
    0.5533    2.1677   12.8004 H   0  0  0  0  0  0  0  0  0  0  0  0
    0.2091   -3.1801   16.5238 H   0  0  0  0  0  0  0  0  0  0  0  0
   -2.1890   -3.6122   16.3096 H   0  0  0  0  0  0  0  0  0  0  0  0
   -5.3854   -1.6032   13.4697 H   0  0  0  0  0  0  0  0  0  0  0  0
   -4.0001   -2.2760   12.6217 H   0  0  0  0  0  0  0  0  0  0  0  0
   -6.0319   -3.7256   12.4721 H   0  0  0  0  0  0  0  0  0  0  0  0
   -4.6910   -4.5475   13.2566 H   0  0  0  0  0  0  0  0  0  0  0  0
   -6.1314   -4.1557   16.5745 H   0  0  0  0  0  0  0  0  0  0  0  0
   -4.7486   -4.8187   15.6925 H   0  0  0  0  0  0  0  0  0  0  0  0
   -5.3882   -1.8709   16.0634 H   0  0  0  0  0  0  0  0  0  0  0  0
   -4.1072   -2.7162   16.8113 H   0  0  0  0  0  0  0  0  0  0  0  0
  1  2  1  0  0  0  0
  1 34  1  0  0  0  0
  1 35  1  0  0  0  0
  1 36  1  0  0  0  0
  2  3  1  0  0  0  0
  3  4  2  0  0  0  0
  3 27  1  0  0  0  0
  4  5  1  0  0  0  0
  4 37  1  0  0  0  0
  5  6  1  0  0  0  0
  5 25  2  0  0  0  0
  6  7  1  0  0  0  0
  6 38  1  0  0  0  0
  7  8  2  0  0  0  0
  7 15  1  0  0  0  0
  8  9  1  0  0  0  0
  9 10  2  0  0  0  0
  9 16  1  0  0  0  0
 10 11  1  0  0  0  0
 10 39  1  0  0  0  0
 11 12  1  0  0  0  0
 11 15  1  0  0  0  0
 12 13  2  0  0  0  0
 12 40  1  0  0  0  0
 13 14  1  0  0  0  0
 13 41  1  0  0  0  0
 14 15  2  0  0  0  0
 16 17  2  0  0  0  0
 16 24  1  0  0  0  0
 17 18  1  0  0  0  0
 17 42  1  0  0  0  0
 18 19  2  0  0  0  0
 18 43  1  0  0  0  0
 19 20  1  0  0  0  0
 19 23  1  0  0  0  0
 20 21  2  0  0  0  0
 20 44  1  0  0  0  0
 21 22  1  0  0  0  0
 22 23  1  0  0  0  0
 22 45  1  0  0  0  0
 23 24  2  0  0  0  0
 24 46  1  0  0  0  0
 25 26  1  0  0  0  0
 25 47  1  0  0  0  0
 26 27  2  0  0  0  0
 26 48  1  0  0  0  0
 27 28  1  0  0  0  0
 28 29  1  0  0  0  0
 28 33  1  0  0  0  0
 29 30  1  0  0  0  0
 29 49  1  0  0  0  0
 29 50  1  0  0  0  0
 30 31  1  0  0  0  0
 30 51  1  0  0  0  0
 30 52  1  0  0  0  0
 31 32  1  0  0  0  0
 32 33  1  0  0  0  0
 32 53  1  0  0  0  0
 32 54  1  0  0  0  0
 33 55  1  0  0  0  0
 33 56  1  0  0  0  0
M  END
>  <IC50[nM]>
0.44

$$$$
