CHEMBL3265028
 OpenBabel02152110423D
Structure written by MMmdl.
 43 47  0  0  1  0  0  0  0  0999 V2000
   -1.9509    0.6794   12.3551 C   0  0  0  0  0  0  0  0  0  0  0  0
   -2.6175   -0.2972   13.1574 O   0  0  0  0  0  0  0  0  0  0  0  0
   -1.8696   -1.0545   14.0449 C   0  0  0  0  0  0  0  0  0  0  0  0
   -2.5006   -2.0822   14.7698 C   0  0  0  0  0  0  0  0  0  0  0  0
   -1.7540   -2.8524   15.6585 C   0  0  0  0  0  0  0  0  0  0  0  0
   -0.3950   -2.6038   15.8322 C   0  0  0  0  0  0  0  0  0  0  0  0
    0.2324   -1.5851   15.1260 C   0  0  0  0  0  0  0  0  0  0  0  0
    1.6168   -1.3648   15.3699 N   0  0  0  0  0  0  0  0  0  0  0  0
    2.5420   -0.4570   14.7968 C   0  0  0  0  0  0  0  0  0  0  0  0
    2.1720    0.3831   13.7786 N   0  0  0  0  0  0  0  0  0  0  0  0
    3.1103    1.2383   13.2419 C   0  0  0  0  0  0  0  0  0  0  0  0
    4.3968    1.2792   13.7037 C   0  0  0  0  0  0  0  0  0  0  0  0
    4.7381    0.4944   14.7692 N   0  0  0  0  0  0  0  0  0  0  0  0
    5.8928    0.3893   15.4752 C   0  0  0  0  0  0  0  0  0  0  0  0
    5.6110   -0.5494   16.5068 C   0  0  0  0  0  0  0  0  0  0  0  0
    4.4002   -1.0741   16.3612 N   0  0  0  0  0  0  0  0  0  0  0  0
    3.8444   -0.3918   15.3407 C   0  0  0  0  0  0  0  0  0  0  0  0
    2.6282    2.1384   12.1226 C   0  0  0  0  0  0  0  0  0  0  0  0
    3.5442    2.6282   11.1721 C   0  0  0  0  0  0  0  0  0  0  0  0
    3.1497    3.4552   10.1130 C   0  0  0  0  0  0  0  0  0  0  0  0
    1.8035    3.8107   10.0226 C   0  0  0  0  0  0  0  0  0  0  0  0
    0.9910    4.6054    9.1269 C   0  0  0  0  0  0  0  0  0  0  0  0
   -0.2498    4.6130    9.5297 N   0  0  0  0  0  0  0  0  0  0  0  0
   -0.3276    3.8827   10.6287 N   0  0  0  0  0  0  0  0  0  0  0  0
    0.8922    3.3455   10.9868 C   0  0  0  0  0  0  0  0  0  0  0  0
    1.2628    2.5119   12.0466 C   0  0  0  0  0  0  0  0  0  0  0  0
   -0.5121   -0.8124   14.2226 C   0  0  0  0  0  0  0  0  0  0  0  0
   -2.6470    1.2080   11.7073 H   0  0  0  0  0  0  0  0  0  0  0  0
   -1.2045    0.2004   11.7318 H   0  0  0  0  0  0  0  0  0  0  0  0
   -1.4794    1.4174   12.9913 H   0  0  0  0  0  0  0  0  0  0  0  0
   -3.5460   -2.2812   14.6470 H   0  0  0  0  0  0  0  0  0  0  0  0
   -2.2312   -3.6425   16.2160 H   0  0  0  0  0  0  0  0  0  0  0  0
    0.1711   -3.2085   16.5377 H   0  0  0  0  0  0  0  0  0  0  0  0
    1.9989   -1.9290   16.1054 H   0  0  0  0  0  0  0  0  0  0  0  0
    5.1566    1.9436   13.3074 H   0  0  0  0  0  0  0  0  0  0  0  0
    6.7779    0.9754   15.2698 H   0  0  0  0  0  0  0  0  0  0  0  0
    6.2564   -0.8382   17.2944 H   0  0  0  0  0  0  0  0  0  0  0  0
    4.5845    2.3474   11.2386 H   0  0  0  0  0  0  0  0  0  0  0  0
    3.8685    3.8054    9.3873 H   0  0  0  0  0  0  0  0  0  0  0  0
    1.3045    5.1360    8.2411 H   0  0  0  0  0  0  0  0  0  0  0  0
   -1.2156    3.7788   11.0960 H   0  0  0  0  0  0  0  0  0  0  0  0
    0.5640    2.1751   12.7727 H   0  0  0  0  0  0  0  0  0  0  0  0
   -0.0605   -0.0305   13.6582 H   0  0  0  0  0  0  0  0  0  0  0  0
  1  2  1  0  0  0  0
  1 28  1  0  0  0  0
  1 29  1  0  0  0  0
  1 30  1  0  0  0  0
  2  3  1  0  0  0  0
  3  4  2  0  0  0  0
  3 27  1  0  0  0  0
  4  5  1  0  0  0  0
  4 31  1  0  0  0  0
  5  6  2  0  0  0  0
  5 32  1  0  0  0  0
  6  7  1  0  0  0  0
  6 33  1  0  0  0  0
  7  8  1  0  0  0  0
  7 27  2  0  0  0  0
  8  9  1  0  0  0  0
  8 34  1  0  0  0  0
  9 10  2  0  0  0  0
  9 17  1  0  0  0  0
 10 11  1  0  0  0  0
 11 12  2  0  0  0  0
 11 18  1  0  0  0  0
 12 13  1  0  0  0  0
 12 35  1  0  0  0  0
 13 14  1  0  0  0  0
 13 17  1  0  0  0  0
 14 15  2  0  0  0  0
 14 36  1  0  0  0  0
 15 16  1  0  0  0  0
 15 37  1  0  0  0  0
 16 17  2  0  0  0  0
 18 19  2  0  0  0  0
 18 26  1  0  0  0  0
 19 20  1  0  0  0  0
 19 38  1  0  0  0  0
 20 21  2  0  0  0  0
 20 39  1  0  0  0  0
 21 22  1  0  0  0  0
 21 25  1  0  0  0  0
 22 23  2  0  0  0  0
 22 40  1  0  0  0  0
 23 24  1  0  0  0  0
 24 25  1  0  0  0  0
 24 41  1  0  0  0  0
 25 26  2  0  0  0  0
 26 42  1  0  0  0  0
 27 43  1  0  0  0  0
M  END
>  <IC50[nM]>
8.5

$$$$
