@<TRIPOS>MOLECULE
CHEMBL3265018
 47 51 0 0 0
SMALL
GASTEIGER
****
Structure written by MMmdl.
@<TRIPOS>ATOM
      1 C          -4.2567   -3.1043   13.5693 C.3     1  LIG1        0.0790
      2 O          -3.8736   -2.3603   14.7157 O.3     1  LIG1       -0.4915
      3 C          -2.5257   -2.1109   14.8170 C.ar    1  LIG1        0.1616
      4 C          -1.7457   -2.8699   15.6819 C.ar    1  LIG1       -0.0146
      5 C          -0.3904   -2.6103   15.8138 C.ar    1  LIG1       -0.0368
      6 C           0.2205   -1.5845   15.0866 C.ar    1  LIG1        0.0362
      7 N           1.6039   -1.3601   15.3216 N.pl3   1  LIG1       -0.2964
      8 C           2.5369   -0.4474   14.7595 C.ar    1  LIG1        0.1669
      9 N           2.1817    0.3719   13.7240 N.ar    1  LIG1       -0.2267
     10 C           3.1138    1.2387   13.2179 C.ar    1  LIG1        0.0898
     11 C           4.4187    1.2840   13.7027 C.ar    1  LIG1        0.0373
     12 N           4.7466    0.4880   14.7600 N.ar    1  LIG1       -0.3018
     13 C           5.8977    0.3770   15.4865 C.ar    1  LIG1        0.0294
     14 C           5.5876   -0.5233   16.5295 C.ar    1  LIG1        0.0465
     15 N           4.3760   -1.0434   16.3734 N.ar    1  LIG1       -0.2330
     16 C           3.8370   -0.3940   15.3257 C.ar    1  LIG1        0.1784
     17 C           2.6359    2.1614   12.1223 C.ar    1  LIG1        0.0039
     18 C           1.3054    2.6314   12.1303 C.ar    1  LIG1       -0.0504
     19 C           0.8262    3.5165   11.1628 C.ar    1  LIG1       -0.0336
     20 C           1.7006    3.9330   10.1707 C.ar    1  LIG1        0.0888
     21 N           1.4948    4.8131    9.1162 N.ar    1  LIG1       -0.2359
     22 C           2.6280    4.8521    8.4793 C.ar    1  LIG1        0.0944
     23 N           3.5731    4.0579    9.0246 N.ar    1  LIG1       -0.3444
     24 C           3.0312    3.4473   10.1317 C.ar    1  LIG1        0.0666
     25 C           3.5261    2.5537   11.0860 C.ar    1  LIG1       -0.0270
     26 C          -0.5552   -0.8189   14.1920 C.ar    1  LIG1        0.0049
     27 C          -1.9445   -1.0884   14.0613 C.ar    1  LIG1        0.1632
     28 O          -2.7533   -0.3562   13.2050 O.3     1  LIG1       -0.4914
     29 C          -2.2327    0.6448   12.3521 C.3     1  LIG1        0.0790
     30 H          -5.3358   -3.2523   13.5866 H       1  LIG1        0.0660
     31 H          -3.7891   -4.0896   13.5591 H       1  LIG1        0.0660
     32 H          -4.0124   -2.5806   12.6438 H       1  LIG1        0.0660
     33 H          -2.1936   -3.6623   16.2628 H       1  LIG1        0.0656
     34 H           0.1988   -3.2068   16.4980 H       1  LIG1        0.0637
     35 H           1.9908   -1.9341   16.0530 H       1  LIG1        0.1537
     36 H           5.1808    1.9634   13.3425 H       1  LIG1        0.0835
     37 H           6.7856    0.9484   15.2760 H       1  LIG1        0.0829
     38 H           6.2287   -0.7926   17.3523 H       1  LIG1        0.0845
     39 H           0.6366    2.3172   12.9226 H       1  LIG1        0.0625
     40 H          -0.1813    3.8713   11.1916 H       1  LIG1        0.0640
     41 H           2.8538    5.4380    7.6007 H       1  LIG1        0.1027
     42 H           4.5054    3.9747    8.6412 H       1  LIG1        0.1668
     43 H           4.5263    2.1799   11.0411 H       1  LIG1        0.0645
     44 H          -0.1081   -0.0326   13.6249 H       1  LIG1        0.0674
     45 H          -3.0507    1.0730   11.7701 H       1  LIG1        0.0660
     46 H          -1.5099    0.2344   11.6497 H       1  LIG1        0.0660
     47 H          -1.7820    1.4500   12.9277 H       1  LIG1        0.0660
@<TRIPOS>BOND
     1     1     2    1
     2     1    30    1
     3     1    31    1
     4     1    32    1
     5     2     3    1
     6     3     4   ar
     7     3    27   ar
     8     4     5   ar
     9     4    33    1
    10     5     6   ar
    11     5    34    1
    12     6     7    1
    13     6    26   ar
    14     7     8    1
    15     7    35    1
    16     8     9   ar
    17     8    16   ar
    18     9    10   ar
    19    10    11   ar
    20    10    17    1
    21    11    12   ar
    22    11    36    1
    23    12    13   ar
    24    12    16   ar
    25    13    14   ar
    26    13    37    1
    27    14    15   ar
    28    14    38    1
    29    15    16   ar
    30    17    18   ar
    31    17    25   ar
    32    18    19   ar
    33    18    39    1
    34    19    20   ar
    35    19    40    1
    36    20    21   ar
    37    20    24   ar
    38    21    22   ar
    39    22    23   ar
    40    22    41    1
    41    23    24   ar
    42    23    42    1
    43    24    25   ar
    44    25    43    1
    45    26    27   ar
    46    26    44    1
    47    27    28    1
    48    28    29    1
    49    29    45    1
    50    29    46    1
    51    29    47    1
