CHEMBL3265010
 OpenBabel02152110423D
Structure written by MMmdl.
 52 55  0  0  1  0  0  0  0  0999 V2000
   -4.2561   -3.1063   13.5675 C   0  0  0  0  0  0  0  0  0  0  0  0
   -3.8710   -2.3586   14.7108 O   0  0  0  0  0  0  0  0  0  0  0  0
   -2.5237   -2.1120   14.8115 C   0  0  0  0  0  0  0  0  0  0  0  0
   -1.7479   -2.8731   15.6758 C   0  0  0  0  0  0  0  0  0  0  0  0
   -0.3907   -2.6159   15.8114 C   0  0  0  0  0  0  0  0  0  0  0  0
    0.2188   -1.5872   15.0906 C   0  0  0  0  0  0  0  0  0  0  0  0
    1.6061   -1.3639   15.3275 N   0  0  0  0  0  0  0  0  0  0  0  0
    2.5365   -0.4468   14.7698 C   0  0  0  0  0  0  0  0  0  0  0  0
    2.1734    0.3862   13.7543 N   0  0  0  0  0  0  0  0  0  0  0  0
    3.1090    1.2399   13.2318 C   0  0  0  0  0  0  0  0  0  0  0  0
    4.4091    1.2828   13.7040 C   0  0  0  0  0  0  0  0  0  0  0  0
    4.7384    0.4983   14.7655 N   0  0  0  0  0  0  0  0  0  0  0  0
    5.8943    0.3897   15.4869 C   0  0  0  0  0  0  0  0  0  0  0  0
    5.5998   -0.5422   16.5164 C   0  0  0  0  0  0  0  0  0  0  0  0
    4.3902   -1.0596   16.3683 N   0  0  0  0  0  0  0  0  0  0  0  0
    3.8368   -0.3957   15.3337 C   0  0  0  0  0  0  0  0  0  0  0  0
    2.6487    2.1497   12.1257 C   0  0  0  0  0  0  0  0  0  0  0  0
    3.5566    2.6396   11.1692 C   0  0  0  0  0  0  0  0  0  0  0  0
    3.1227    3.4570   10.1283 C   0  0  0  0  0  0  0  0  0  0  0  0
    1.7703    3.8176   10.0234 C   0  0  0  0  0  0  0  0  0  0  0  0
    1.3292    4.6020    8.9846 O   0  0  0  0  0  0  0  0  0  0  0  0
    2.1136    5.6875    8.5183 C   0  0  0  0  0  0  0  0  0  0  0  0
    0.8614    3.3613   10.9917 C   0  0  0  0  0  0  0  0  0  0  0  0
    1.3049    2.5285   12.0328 C   0  0  0  0  0  0  0  0  0  0  0  0
   -0.6146    3.7607   10.8922 C   0  0  0  0  0  0  0  0  0  0  0  0
   -1.0753    4.3040    9.8978 O   0  0  0  0  0  0  0  0  0  0  0  0
   -1.3527    3.4740   11.9629 N   0  0  0  0  0  0  0  0  0  0  0  0
   -0.5555   -0.8165   14.1949 C   0  0  0  0  0  0  0  0  0  0  0  0
   -1.9469   -1.0910   14.0631 C   0  0  0  0  0  0  0  0  0  0  0  0
   -2.7598   -0.3552   13.2170 O   0  0  0  0  0  0  0  0  0  0  0  0
   -2.2311    0.6451   12.3776 C   0  0  0  0  0  0  0  0  0  0  0  0
   -5.3364   -3.2553   13.5856 H   0  0  0  0  0  0  0  0  0  0  0  0
   -3.7839   -4.0901   13.5556 H   0  0  0  0  0  0  0  0  0  0  0  0
   -4.0101   -2.5845   12.6407 H   0  0  0  0  0  0  0  0  0  0  0  0
   -2.2034   -3.6660   16.2562 H   0  0  0  0  0  0  0  0  0  0  0  0
    0.1971   -3.2189   16.4942 H   0  0  0  0  0  0  0  0  0  0  0  0
    2.0037   -1.9659   16.0267 H   0  0  0  0  0  0  0  0  0  0  0  0
    5.1760    1.9362   13.3182 H   0  0  0  0  0  0  0  0  0  0  0  0
    6.7838    0.9709   15.2741 H   0  0  0  0  0  0  0  0  0  0  0  0
    6.2446   -0.8293   17.3211 H   0  0  0  0  0  0  0  0  0  0  0  0
    4.6039    2.3672   11.2287 H   0  0  0  0  0  0  0  0  0  0  0  0
    3.8363    3.8116    9.4024 H   0  0  0  0  0  0  0  0  0  0  0  0
    1.5354    6.2089    7.7566 H   0  0  0  0  0  0  0  0  0  0  0  0
    3.0460    5.3492    8.0564 H   0  0  0  0  0  0  0  0  0  0  0  0
    2.3213    6.4278    9.2942 H   0  0  0  0  0  0  0  0  0  0  0  0
    0.6057    2.1603   12.7711 H   0  0  0  0  0  0  0  0  0  0  0  0
   -2.3373    3.7022   11.9713 H   0  0  0  0  0  0  0  0  0  0  0  0
   -0.9395    3.0411   12.7709 H   0  0  0  0  0  0  0  0  0  0  0  0
   -0.1099   -0.0241   13.6351 H   0  0  0  0  0  0  0  0  0  0  0  0
   -3.0414    1.0912   11.7946 H   0  0  0  0  0  0  0  0  0  0  0  0
   -1.4766    0.2728   11.6770 H   0  0  0  0  0  0  0  0  0  0  0  0
   -1.8063    1.4100   13.0251 H   0  0  0  0  0  0  0  0  0  0  0  0
  1  2  1  0  0  0  0
  1 32  1  0  0  0  0
  1 33  1  0  0  0  0
  1 34  1  0  0  0  0
  2  3  1  0  0  0  0
  3  4  2  0  0  0  0
  3 29  1  0  0  0  0
  4  5  1  0  0  0  0
  4 35  1  0  0  0  0
  5  6  2  0  0  0  0
  5 36  1  0  0  0  0
  6  7  1  0  0  0  0
  6 28  1  0  0  0  0
  7  8  1  0  0  0  0
  7 37  1  0  0  0  0
  8  9  2  0  0  0  0
  8 16  1  0  0  0  0
  9 10  1  0  0  0  0
 10 11  2  0  0  0  0
 10 17  1  0  0  0  0
 11 12  1  0  0  0  0
 11 38  1  0  0  0  0
 12 13  1  0  0  0  0
 12 16  1  0  0  0  0
 13 14  2  0  0  0  0
 13 39  1  0  0  0  0
 14 15  1  0  0  0  0
 14 40  1  0  0  0  0
 15 16  2  0  0  0  0
 17 18  2  0  0  0  0
 17 24  1  0  0  0  0
 18 19  1  0  0  0  0
 18 41  1  0  0  0  0
 19 20  2  0  0  0  0
 19 42  1  0  0  0  0
 20 21  1  0  0  0  0
 20 23  1  0  0  0  0
 21 22  1  0  0  0  0
 22 43  1  0  0  0  0
 22 44  1  0  0  0  0
 22 45  1  0  0  0  0
 23 24  2  0  0  0  0
 23 25  1  0  0  0  0
 24 46  1  0  0  0  0
 25 26  2  0  0  0  0
 25 27  1  0  0  0  0
 27 47  1  0  0  0  0
 27 48  1  0  0  0  0
 28 29  2  0  0  0  0
 28 49  1  0  0  0  0
 29 30  1  0  0  0  0
 30 31  1  0  0  0  0
 31 50  1  0  0  0  0
 31 51  1  0  0  0  0
 31 52  1  0  0  0  0
M  END
>  <IC50[nM]>
37.4

$$$$
