CHEMBL3265014
 OpenBabel02152110423D
Structure written by MMmdl.
 52 55  0  0  1  0  0  0  0  0999 V2000
   -4.2555   -3.1029   13.5707 C   0  0  0  0  0  0  0  0  0  0  0  0
   -3.8740   -2.3535   14.7166 O   0  0  0  0  0  0  0  0  0  0  0  0
   -2.5261   -2.1057   14.8053 C   0  0  0  0  0  0  0  0  0  0  0  0
   -1.7497   -2.8673   15.6804 C   0  0  0  0  0  0  0  0  0  0  0  0
   -0.3863   -2.6106   15.8150 C   0  0  0  0  0  0  0  0  0  0  0  0
    0.2220   -1.5829   15.0890 C   0  0  0  0  0  0  0  0  0  0  0  0
    1.5930   -1.3491   15.3060 N   0  0  0  0  0  0  0  0  0  0  0  0
    2.5452   -0.4689   14.7536 C   0  0  0  0  0  0  0  0  0  0  0  0
    2.2178    0.3551   13.7190 N   0  0  0  0  0  0  0  0  0  0  0  0
    3.1227    1.2406   13.2181 C   0  0  0  0  0  0  0  0  0  0  0  0
    4.4207    1.3039   13.7175 C   0  0  0  0  0  0  0  0  0  0  0  0
    4.7482    0.4921   14.7654 N   0  0  0  0  0  0  0  0  0  0  0  0
    5.8898    0.3836   15.5035 C   0  0  0  0  0  0  0  0  0  0  0  0
    5.5715   -0.5089   16.5177 C   0  0  0  0  0  0  0  0  0  0  0  0
    4.3818   -1.0543   16.3920 N   0  0  0  0  0  0  0  0  0  0  0  0
    3.8330   -0.4170   15.3252 C   0  0  0  0  0  0  0  0  0  0  0  0
    2.6564    2.1560   12.1340 C   0  0  0  0  0  0  0  0  0  0  0  0
    3.5566    2.6280   11.1666 C   0  0  0  0  0  0  0  0  0  0  0  0
    3.1294    3.4499   10.1277 C   0  0  0  0  0  0  0  0  0  0  0  0
    1.7879    3.8078   10.0318 C   0  0  0  0  0  0  0  0  0  0  0  0
    1.3279    4.6787    8.9005 C   0  0  0  0  0  0  0  0  0  0  0  0
    0.1733    5.0540    8.7192 O   0  0  0  0  0  0  0  0  0  0  0  0
    2.3332    5.0113    8.0903 N   0  0  0  0  0  0  0  0  0  0  0  0
    0.8660    3.3707   10.9895 C   0  0  0  0  0  0  0  0  0  0  0  0
   -0.4627    3.7335   10.9031 O   0  0  0  0  0  0  0  0  0  0  0  0
   -1.2689    3.2382   11.9077 C   0  0  0  0  0  0  0  0  0  0  0  0
    1.3140    2.5576   12.0419 C   0  0  0  0  0  0  0  0  0  0  0  0
   -0.5664   -0.8256   14.2115 C   0  0  0  0  0  0  0  0  0  0  0  0
   -1.9389   -1.0760   14.0580 C   0  0  0  0  0  0  0  0  0  0  0  0
   -2.6991   -0.3052   13.2022 O   0  0  0  0  0  0  0  0  0  0  0  0
   -2.0020    0.6747   12.5251 C   0  0  0  0  0  0  0  0  0  0  0  0
   -5.3281   -3.2944   13.5971 H   0  0  0  0  0  0  0  0  0  0  0  0
   -3.7409   -4.0644   13.5414 H   0  0  0  0  0  0  0  0  0  0  0  0
   -4.0324   -2.5598   12.6514 H   0  0  0  0  0  0  0  0  0  0  0  0
   -2.2100   -3.6528   16.2607 H   0  0  0  0  0  0  0  0  0  0  0  0
    0.1910   -3.2101   16.5030 H   0  0  0  0  0  0  0  0  0  0  0  0
    2.0247   -1.8856   16.0476 H   0  0  0  0  0  0  0  0  0  0  0  0
    5.1702    2.0029   13.3720 H   0  0  0  0  0  0  0  0  0  0  0  0
    6.7655    0.9739   15.2896 H   0  0  0  0  0  0  0  0  0  0  0  0
    6.2092   -0.8329   17.3299 H   0  0  0  0  0  0  0  0  0  0  0  0
    4.5935    2.3311   11.2005 H   0  0  0  0  0  0  0  0  0  0  0  0
    3.8342    3.7941    9.3846 H   0  0  0  0  0  0  0  0  0  0  0  0
    2.2554    5.5897    7.2660 H   0  0  0  0  0  0  0  0  0  0  0  0
    3.2955    4.7255    8.2018 H   0  0  0  0  0  0  0  0  0  0  0  0
   -2.2930    3.5778   11.7524 H   0  0  0  0  0  0  0  0  0  0  0  0
   -0.9095    3.5968   12.8721 H   0  0  0  0  0  0  0  0  0  0  0  0
   -1.2412    2.1486   11.8919 H   0  0  0  0  0  0  0  0  0  0  0  0
    0.6053    2.2127   12.7810 H   0  0  0  0  0  0  0  0  0  0  0  0
   -0.1548   -0.0169   13.6336 H   0  0  0  0  0  0  0  0  0  0  0  0
   -2.6852    1.2257   11.8788 H   0  0  0  0  0  0  0  0  0  0  0  0
   -1.2219    0.2131   11.9198 H   0  0  0  0  0  0  0  0  0  0  0  0
   -1.5485    1.3591   13.2420 H   0  0  0  0  0  0  0  0  0  0  0  0
  1  2  1  0  0  0  0
  1 32  1  0  0  0  0
  1 33  1  0  0  0  0
  1 34  1  0  0  0  0
  2  3  1  0  0  0  0
  3  4  2  0  0  0  0
  3 29  1  0  0  0  0
  4  5  1  0  0  0  0
  4 35  1  0  0  0  0
  5  6  2  0  0  0  0
  5 36  1  0  0  0  0
  6  7  1  0  0  0  0
  6 28  1  0  0  0  0
  7  8  1  0  0  0  0
  7 37  1  0  0  0  0
  8  9  2  0  0  0  0
  8 16  1  0  0  0  0
  9 10  1  0  0  0  0
 10 11  2  0  0  0  0
 10 17  1  0  0  0  0
 11 12  1  0  0  0  0
 11 38  1  0  0  0  0
 12 13  1  0  0  0  0
 12 16  1  0  0  0  0
 13 14  2  0  0  0  0
 13 39  1  0  0  0  0
 14 15  1  0  0  0  0
 14 40  1  0  0  0  0
 15 16  2  0  0  0  0
 17 18  2  0  0  0  0
 17 27  1  0  0  0  0
 18 19  1  0  0  0  0
 18 41  1  0  0  0  0
 19 20  2  0  0  0  0
 19 42  1  0  0  0  0
 20 21  1  0  0  0  0
 20 24  1  0  0  0  0
 21 22  2  0  0  0  0
 21 23  1  0  0  0  0
 23 43  1  0  0  0  0
 23 44  1  0  0  0  0
 24 25  1  0  0  0  0
 24 27  2  0  0  0  0
 25 26  1  0  0  0  0
 26 45  1  0  0  0  0
 26 46  1  0  0  0  0
 26 47  1  0  0  0  0
 27 48  1  0  0  0  0
 28 29  2  0  0  0  0
 28 49  1  0  0  0  0
 29 30  1  0  0  0  0
 30 31  1  0  0  0  0
 31 50  1  0  0  0  0
 31 51  1  0  0  0  0
 31 52  1  0  0  0  0
M  END
>  <IC50[nM]>
23.8

$$$$
