CHEMBL3265023
 OpenBabel02152110423D
Structure written by MMmdl.
 50 54  0  0  1  0  0  0  0  0999 V2000
   -4.2567   -3.1059   13.5673 C   0  0  0  0  0  0  0  0  0  0  0  0
   -3.8729   -2.3613   14.7130 O   0  0  0  0  0  0  0  0  0  0  0  0
   -2.5249   -2.1099   14.8153 C   0  0  0  0  0  0  0  0  0  0  0  0
   -1.7517   -2.8690   15.6822 C   0  0  0  0  0  0  0  0  0  0  0  0
   -0.3919   -2.6091   15.8186 C   0  0  0  0  0  0  0  0  0  0  0  0
    0.2189   -1.5847   15.0927 C   0  0  0  0  0  0  0  0  0  0  0  0
    1.6018   -1.3585   15.3330 N   0  0  0  0  0  0  0  0  0  0  0  0
    2.5269   -0.4362   14.7717 C   0  0  0  0  0  0  0  0  0  0  0  0
    2.1589    0.3947   13.7415 N   0  0  0  0  0  0  0  0  0  0  0  0
    3.1051    1.2383   13.2191 C   0  0  0  0  0  0  0  0  0  0  0  0
    4.4090    1.2795   13.7014 C   0  0  0  0  0  0  0  0  0  0  0  0
    4.7388    0.4912   14.7576 N   0  0  0  0  0  0  0  0  0  0  0  0
    5.8975    0.3852   15.4842 C   0  0  0  0  0  0  0  0  0  0  0  0
    5.5969   -0.5378   16.5183 C   0  0  0  0  0  0  0  0  0  0  0  0
    4.3825   -1.0459   16.3661 N   0  0  0  0  0  0  0  0  0  0  0  0
    3.8333   -0.3893   15.3272 C   0  0  0  0  0  0  0  0  0  0  0  0
    2.6571    2.1471   12.1112 C   0  0  0  0  0  0  0  0  0  0  0  0
    3.5899    2.6392   11.1753 C   0  0  0  0  0  0  0  0  0  0  0  0
    3.2345    3.5009   10.1325 C   0  0  0  0  0  0  0  0  0  0  0  0
    1.8924    3.8376   10.0551 C   0  0  0  0  0  0  0  0  0  0  0  0
    0.9171    3.3423   10.9725 C   0  0  0  0  0  0  0  0  0  0  0  0
   -0.3038    3.9315   10.5288 C   0  0  0  0  0  0  0  0  0  0  0  0
   -0.0986    4.6050    9.4408 N   0  0  0  0  0  0  0  0  0  0  0  0
    1.1962    4.6448    9.1980 N   0  0  0  0  0  0  0  0  0  0  0  0
    1.7045    5.4754    8.0961 C   0  0  0  0  0  0  0  0  0  0  0  0
    1.3025    2.4943   12.0076 C   0  0  0  0  0  0  0  0  0  0  0  0
   -0.5544   -0.8156   14.1936 C   0  0  0  0  0  0  0  0  0  0  0  0
   -1.9395   -1.0837   14.0623 C   0  0  0  0  0  0  0  0  0  0  0  0
   -2.7429   -0.3421   13.2117 O   0  0  0  0  0  0  0  0  0  0  0  0
   -2.2131    0.6368   12.3357 C   0  0  0  0  0  0  0  0  0  0  0  0
   -5.3375   -3.2479   13.5825 H   0  0  0  0  0  0  0  0  0  0  0  0
   -3.7907   -4.0919   13.5609 H   0  0  0  0  0  0  0  0  0  0  0  0
   -4.0043   -2.5870   12.6413 H   0  0  0  0  0  0  0  0  0  0  0  0
   -2.2103   -3.6575   16.2628 H   0  0  0  0  0  0  0  0  0  0  0  0
    0.1961   -3.2002   16.5072 H   0  0  0  0  0  0  0  0  0  0  0  0
    1.9973   -1.9477   16.0590 H   0  0  0  0  0  0  0  0  0  0  0  0
    5.1715    1.9507   13.3355 H   0  0  0  0  0  0  0  0  0  0  0  0
    6.7782    0.9732   15.2765 H   0  0  0  0  0  0  0  0  0  0  0  0
    6.2398   -0.8227   17.3413 H   0  0  0  0  0  0  0  0  0  0  0  0
    4.6155    2.3316   11.2554 H   0  0  0  0  0  0  0  0  0  0  0  0
    3.9649    3.8698    9.4220 H   0  0  0  0  0  0  0  0  0  0  0  0
   -1.2802    3.8493   10.9568 H   0  0  0  0  0  0  0  0  0  0  0  0
    2.1994    4.8389    7.3819 H   0  0  0  0  0  0  0  0  0  0  0  0
    2.4134    6.2165    8.4892 H   0  0  0  0  0  0  0  0  0  0  0  0
    0.9332    5.9474    7.4753 H   0  0  0  0  0  0  0  0  0  0  0  0
    0.5767    2.1227   12.7182 H   0  0  0  0  0  0  0  0  0  0  0  0
   -0.1144   -0.0216   13.6244 H   0  0  0  0  0  0  0  0  0  0  0  0
   -3.0360    1.0624   11.7579 H   0  0  0  0  0  0  0  0  0  0  0  0
   -1.5052    0.1989   11.6324 H   0  0  0  0  0  0  0  0  0  0  0  0
   -1.7487    1.4445   12.8985 H   0  0  0  0  0  0  0  0  0  0  0  0
  1  2  1  0  0  0  0
  1 31  1  0  0  0  0
  1 32  1  0  0  0  0
  1 33  1  0  0  0  0
  2  3  1  0  0  0  0
  3  4  2  0  0  0  0
  3 28  1  0  0  0  0
  4  5  1  0  0  0  0
  4 34  1  0  0  0  0
  5  6  2  0  0  0  0
  5 35  1  0  0  0  0
  6  7  1  0  0  0  0
  6 27  1  0  0  0  0
  7  8  1  0  0  0  0
  7 36  1  0  0  0  0
  8  9  2  0  0  0  0
  8 16  1  0  0  0  0
  9 10  1  0  0  0  0
 10 11  2  0  0  0  0
 10 17  1  0  0  0  0
 11 12  1  0  0  0  0
 11 37  1  0  0  0  0
 12 13  1  0  0  0  0
 12 16  1  0  0  0  0
 13 14  2  0  0  0  0
 13 38  1  0  0  0  0
 14 15  1  0  0  0  0
 14 39  1  0  0  0  0
 15 16  2  0  0  0  0
 17 18  2  0  0  0  0
 17 26  1  0  0  0  0
 18 19  1  0  0  0  0
 18 40  1  0  0  0  0
 19 20  2  0  0  0  0
 19 41  1  0  0  0  0
 20 21  1  0  0  0  0
 20 24  1  0  0  0  0
 21 22  1  0  0  0  0
 21 26  2  0  0  0  0
 22 23  2  0  0  0  0
 22 42  1  0  0  0  0
 23 24  1  0  0  0  0
 24 25  1  0  0  0  0
 25 43  1  0  0  0  0
 25 44  1  0  0  0  0
 25 45  1  0  0  0  0
 26 46  1  0  0  0  0
 27 28  2  0  0  0  0
 27 47  1  0  0  0  0
 28 29  1  0  0  0  0
 29 30  1  0  0  0  0
 30 48  1  0  0  0  0
 30 49  1  0  0  0  0
 30 50  1  0  0  0  0
M  END
>  <IC50[nM]>
20.9

$$$$
