@<TRIPOS>MOLECULE
CHEMBL3264994
 64 68 0 0 0
SMALL
GASTEIGER
****
Structure written by MMmdl.
@<TRIPOS>ATOM
      1 C          -4.1531   -3.4266   13.5369 C.3     1  LIG1       -0.0560
      2 C          -3.9919   -2.3907   14.6629 C.3     1  LIG1       -0.0127
      3 C          -4.6875   -1.0646   14.3101 C.3     1  LIG1       -0.0560
      4 C          -4.4873   -2.9438   16.0103 C.3     1  LIG1       -0.0560
      5 C          -2.5261   -2.1057   14.8053 C.ar    1  LIG1       -0.0419
      6 C          -1.9389   -1.0760   14.0580 C.ar    1  LIG1       -0.0563
      7 C          -0.5664   -0.8256   14.2115 C.ar    1  LIG1       -0.0402
      8 C           0.2220   -1.5829   15.0890 C.ar    1  LIG1        0.0325
      9 N           1.5930   -1.3491   15.3060 N.pl3   1  LIG1       -0.2965
     10 C           2.5452   -0.4689   14.7536 C.ar    1  LIG1        0.1669
     11 N           2.2178    0.3551   13.7190 N.ar    1  LIG1       -0.2267
     12 C           3.1227    1.2406   13.2181 C.ar    1  LIG1        0.0897
     13 C           4.4207    1.3039   13.7175 C.ar    1  LIG1        0.0373
     14 N           4.7482    0.4921   14.7654 N.ar    1  LIG1       -0.3018
     15 C           5.8898    0.3836   15.5035 C.ar    1  LIG1        0.0294
     16 C           5.5715   -0.5089   16.5177 C.ar    1  LIG1        0.0465
     17 N           4.3818   -1.0543   16.3920 N.ar    1  LIG1       -0.2330
     18 C           3.8330   -0.4170   15.3252 C.ar    1  LIG1        0.1784
     19 C           2.6564    2.1560   12.1340 C.ar    1  LIG1        0.0036
     20 C           3.5566    2.6280   11.1666 C.ar    1  LIG1       -0.0524
     21 C           3.1294    3.4499   10.1277 C.ar    1  LIG1       -0.0594
     22 C           1.7879    3.8078   10.0318 C.ar    1  LIG1       -0.0404
     23 C           0.8660    3.3707   10.9895 C.ar    1  LIG1        0.0343
     24 N          -0.5399    3.7537   10.8977 N.am    1  LIG1       -0.2815
     25 C          -1.2550    4.3141   11.8736 C.2     1  LIG1        0.2483
     26 O          -0.8140    4.4931   13.0050 O.2     1  LIG1       -0.2699
     27 C          -2.6333    4.6854   11.4124 C.ar    1  LIG1        0.0371
     28 C          -3.5436    5.2295   12.3108 C.ar    1  LIG1       -0.0490
     29 C          -4.8206    5.5735   11.8835 C.ar    1  LIG1       -0.0522
     30 C          -5.1873    5.3735   10.5579 C.ar    1  LIG1       -0.0026
     31 C          -4.2770    4.8294    9.6596 C.ar    1  LIG1       -0.0522
     32 C          -3.0000    4.4854   10.0869 C.ar    1  LIG1       -0.0490
     33 C          -6.5655    5.7447   10.0968 C.2     1  LIG1        0.0717
     34 O          -6.9139    5.5749    8.9190 O.co2   1  LIG1       -0.5446
     35 O          -7.3451    6.2270   10.9318 O.co2   1  LIG1       -0.5446
     36 C           1.3140    2.5576   12.0419 C.ar    1  LIG1       -0.0312
     37 C          -0.3863   -2.6106   15.8150 C.ar    1  LIG1       -0.0402
     38 C          -1.7497   -2.8673   15.6804 C.ar    1  LIG1       -0.0563
     39 H          -5.2013   -3.6828   13.3771 H       1  LIG1        0.0238
     40 H          -3.6186   -4.3486   13.7684 H       1  LIG1        0.0238
     41 H          -3.7570   -3.0497   12.5933 H       1  LIG1        0.0238
     42 H          -4.2998   -0.6503   13.3787 H       1  LIG1        0.0238
     43 H          -4.5308   -0.3167   15.0883 H       1  LIG1        0.0238
     44 H          -5.7636   -1.1975   14.1906 H       1  LIG1        0.0238
     45 H          -5.5529   -3.1749   15.9796 H       1  LIG1        0.0238
     46 H          -4.3275   -2.2256   16.8153 H       1  LIG1        0.0238
     47 H          -3.9581   -3.8582   16.2809 H       1  LIG1        0.0238
     48 H          -2.5303   -0.4809   13.3780 H       1  LIG1        0.0621
     49 H          -0.1531   -0.0197   13.6305 H       1  LIG1        0.0636
     50 H           2.0242   -1.8881   16.0458 H       1  LIG1        0.1537
     51 H           5.1702    2.0027   13.3717 H       1  LIG1        0.0835
     52 H           6.7657    0.9737   15.2895 H       1  LIG1        0.0829
     53 H           6.2091   -0.8330   17.3300 H       1  LIG1        0.0845
     54 H           4.5934    2.3308   11.2002 H       1  LIG1        0.0624
     55 H           3.8342    3.7938    9.3845 H       1  LIG1        0.0618
     56 H           1.4564    4.4348    9.2165 H       1  LIG1        0.0636
     57 H          -0.8833    3.5257    9.9756 H       1  LIG1        0.1551
     58 H          -3.2580    5.3853   13.3428 H       1  LIG1        0.0625
     59 H          -5.5293    5.9971   12.5829 H       1  LIG1        0.0624
     60 H          -4.5625    4.6736    8.6276 H       1  LIG1        0.0624
     61 H          -2.2913    4.0618    9.3875 H       1  LIG1        0.0625
     62 H           0.6052    2.2121   12.7807 H       1  LIG1        0.0643
     63 H           0.1929   -3.2118   16.5002 H       1  LIG1        0.0636
     64 H          -2.2057   -3.6608   16.2538 H       1  LIG1        0.0621
@<TRIPOS>BOND
     1     1     2    1
     2     1    39    1
     3     1    40    1
     4     1    41    1
     5     2     3    1
     6     2     4    1
     7     2     5    1
     8     3    42    1
     9     3    43    1
    10     3    44    1
    11     4    45    1
    12     4    46    1
    13     4    47    1
    14     5     6   ar
    15     5    38   ar
    16     6     7   ar
    17     6    48    1
    18     7     8   ar
    19     7    49    1
    20     8     9    1
    21     8    37   ar
    22     9    10    1
    23     9    50    1
    24    10    11   ar
    25    10    18   ar
    26    11    12   ar
    27    12    13   ar
    28    12    19    1
    29    13    14   ar
    30    13    51    1
    31    14    15   ar
    32    14    18   ar
    33    15    16   ar
    34    15    52    1
    35    16    17   ar
    36    16    53    1
    37    17    18   ar
    38    19    20   ar
    39    19    36   ar
    40    20    21   ar
    41    20    54    1
    42    21    22   ar
    43    21    55    1
    44    22    23   ar
    45    22    56    1
    46    23    24    1
    47    23    36   ar
    48    24    25   am
    49    24    57    1
    50    25    26    2
    51    25    27    1
    52    27    28   ar
    53    27    32   ar
    54    28    29   ar
    55    28    58    1
    56    29    30   ar
    57    29    59    1
    58    30    31   ar
    59    30    33    1
    60    31    32   ar
    61    31    60    1
    62    32    61    1
    63    33    34   ar
    64    33    35   ar
    65    36    62    1
    66    37    38   ar
    67    37    63    1
    68    38    64    1
