@<TRIPOS>MOLECULE
CHEMBL3265032
 52 57 0 0 0
SMALL
GASTEIGER
****
Structure written by MMmdl.
@<TRIPOS>ATOM
      1 C          -5.2528   -4.0279   13.4883 C.3     1  LIG1        0.0634
      2 C          -4.5590   -2.6369   13.4544 C.3     1  LIG1        0.0357
      3 N          -3.8919   -2.2470   14.7137 N.pl3   1  LIG1       -0.3255
      4 C          -4.7198   -2.6287   15.8665 C.3     1  LIG1        0.0357
      5 C          -5.4261   -3.9885   15.8402 C.3     1  LIG1        0.0634
      6 O          -6.1177   -4.1508   14.6092 O.3     1  LIG1       -0.3767
      7 C          -2.5101   -2.0763   14.8035 C.ar    1  LIG1        0.0299
      8 C          -1.8815   -1.1097   14.0182 C.ar    1  LIG1       -0.0389
      9 C          -0.5196   -0.8466   14.1763 C.ar    1  LIG1       -0.0388
     10 C           0.2358   -1.5888   15.0999 C.ar    1  LIG1        0.0326
     11 N           1.6095   -1.3595   15.3505 N.pl3   1  LIG1       -0.2965
     12 C           2.5288   -0.4326   14.7915 C.ar    1  LIG1        0.1669
     13 N           2.1515    0.4038   13.7773 N.ar    1  LIG1       -0.2267
     14 C           3.0856    1.2408   13.2315 C.ar    1  LIG1        0.0897
     15 C           4.3919    1.2835   13.6955 C.ar    1  LIG1        0.0373
     16 N           4.7346    0.4998   14.7545 N.ar    1  LIG1       -0.3018
     17 C           5.8922    0.3978   15.4788 C.ar    1  LIG1        0.0294
     18 C           5.6049   -0.5481   16.4962 C.ar    1  LIG1        0.0465
     19 N           4.3940   -1.0599   16.3510 N.ar    1  LIG1       -0.2330
     20 C           3.8344   -0.3880   15.3306 C.ar    1  LIG1        0.1784
     21 C           2.6174    2.1451   12.1221 C.ar    1  LIG1        0.0039
     22 C           3.5375    2.6360   11.1692 C.ar    1  LIG1       -0.0518
     23 C           3.1548    3.4584   10.1087 C.ar    1  LIG1       -0.0505
     24 C           1.8089    3.8176   10.0151 C.ar    1  LIG1        0.0195
     25 C           0.9999    4.6108    9.1243 C.ar    1  LIG1        0.0569
     26 N          -0.2405    4.6150    9.5301 N.ar    1  LIG1       -0.1812
     27 N          -0.3274    3.8782   10.6339 N.ar    1  LIG1       -0.2769
     28 C           0.8831    3.3398   10.9927 C.ar    1  LIG1        0.0663
     29 C           1.2567    2.5006   12.0460 C.ar    1  LIG1       -0.0271
     30 C          -0.3865   -2.5955   15.8355 C.ar    1  LIG1       -0.0388
     31 C          -1.7498   -2.8337   15.7040 C.ar    1  LIG1       -0.0389
     32 H          -4.5051   -4.8201   13.5326 H       1  LIG1        0.0575
     33 H          -5.8382   -4.1961   12.5835 H       1  LIG1        0.0575
     34 H          -3.8574   -2.6184   12.6184 H       1  LIG1        0.0486
     35 H          -5.3171   -1.8948   13.2323 H       1  LIG1        0.0486
     36 H          -4.1680   -2.4954   16.7966 H       1  LIG1        0.0486
     37 H          -5.4757   -1.8452   15.9095 H       1  LIG1        0.0486
     38 H          -4.6783   -4.7685   15.9759 H       1  LIG1        0.0575
     39 H          -6.1259   -4.0493   16.6787 H       1  LIG1        0.0575
     40 H          -2.4632   -0.5270   13.3256 H       1  LIG1        0.0637
     41 H          -0.0772   -0.0608   13.5996 H       1  LIG1        0.0637
     42 H           2.0056   -1.9485   16.0686 H       1  LIG1        0.1537
     43 H           5.1492    1.9467   13.3043 H       1  LIG1        0.0835
     44 H           6.7687    0.9973   15.2711 H       1  LIG1        0.0829
     45 H           6.2551   -0.8495   17.2990 H       1  LIG1        0.0845
     46 H           4.5745    2.3502   11.2465 H       1  LIG1        0.0624
     47 H           3.8814    3.8031    9.3814 H       1  LIG1        0.0625
     48 H           1.3048    5.1494    8.2407 H       1  LIG1        0.0854
     49 H          -1.2122    3.7667   11.1066 H       1  LIG1        0.1889
     50 H           0.5434    2.1468   12.7781 H       1  LIG1        0.0645
     51 H           0.1974   -3.1804   16.5382 H       1  LIG1        0.0637
     52 H          -2.2129   -3.6048   16.3012 H       1  LIG1        0.0637
@<TRIPOS>BOND
     1     1     2    1
     2     1     6    1
     3     1    32    1
     4     1    33    1
     5     2     3    1
     6     2    34    1
     7     2    35    1
     8     3     4    1
     9     3     7    1
    10     4     5    1
    11     4    36    1
    12     4    37    1
    13     5     6    1
    14     5    38    1
    15     5    39    1
    16     7     8   ar
    17     7    31   ar
    18     8     9   ar
    19     8    40    1
    20     9    10   ar
    21     9    41    1
    22    10    11    1
    23    10    30   ar
    24    11    12    1
    25    11    42    1
    26    12    13   ar
    27    12    20   ar
    28    13    14   ar
    29    14    15   ar
    30    14    21    1
    31    15    16   ar
    32    15    43    1
    33    16    17   ar
    34    16    20   ar
    35    17    18   ar
    36    17    44    1
    37    18    19   ar
    38    18    45    1
    39    19    20   ar
    40    21    22   ar
    41    21    29   ar
    42    22    23   ar
    43    22    46    1
    44    23    24   ar
    45    23    47    1
    46    24    25   ar
    47    24    28   ar
    48    25    26   ar
    49    25    48    1
    50    26    27   ar
    51    27    28   ar
    52    27    49    1
    53    28    29   ar
    54    29    50    1
    55    30    31   ar
    56    30    51    1
    57    31    52    1
