@<TRIPOS>MOLECULE
CHEMBL3265026
 51 55 0 0 0
SMALL
GASTEIGER
****
Structure written by MMmdl.
@<TRIPOS>ATOM
      1 C          -4.2568   -3.1047   13.5691 C.3     1  LIG1        0.0790
      2 O          -3.8735   -2.3611   14.7159 O.3     1  LIG1       -0.4915
      3 C          -2.5255   -2.1111   14.8166 C.ar    1  LIG1        0.1616
      4 C          -1.7467   -2.8699   15.6815 C.ar    1  LIG1       -0.0146
      5 C          -0.3906   -2.6103   15.8137 C.ar    1  LIG1       -0.0368
      6 C           0.2208   -1.5857   15.0868 C.ar    1  LIG1        0.0362
      7 N           1.6032   -1.3595   15.3238 N.pl3   1  LIG1       -0.2964
      8 C           2.5348   -0.4457   14.7641 C.ar    1  LIG1        0.1669
      9 N           2.1779    0.3778   13.7292 N.ar    1  LIG1       -0.2267
     10 C           3.1185    1.2359   13.2212 C.ar    1  LIG1        0.0897
     11 C           4.4181    1.2809   13.7047 C.ar    1  LIG1        0.0373
     12 N           4.7461    0.4870   14.7618 N.ar    1  LIG1       -0.3018
     13 C           5.8981    0.3788   15.4858 C.ar    1  LIG1        0.0294
     14 C           5.5910   -0.5280   16.5270 C.ar    1  LIG1        0.0465
     15 N           4.3781   -1.0445   16.3723 N.ar    1  LIG1       -0.2330
     16 C           3.8363   -0.3925   15.3256 C.ar    1  LIG1        0.1784
     17 C           2.6611    2.1501   12.1240 C.ar    1  LIG1        0.0038
     18 C           3.5712    2.6353   11.1629 C.ar    1  LIG1       -0.0489
     19 C           3.1347    3.4612   10.1202 C.ar    1  LIG1       -0.0175
     20 C           1.7926    3.8149   10.0376 C.ar    1  LIG1        0.1413
     21 O           1.4009    4.6318    8.9894 O.3     1  LIG1       -0.4886
     22 C           0.0085    4.5902    8.6762 C.3     1  LIG1        0.1050
     23 C          -0.8186    4.7372    9.9574 C.3     1  LIG1        0.0434
     24 N          -0.4761    3.7058   10.9290 N.pl3   1  LIG1       -0.3378
     25 C           0.8817    3.3521   10.9992 C.ar    1  LIG1        0.0701
     26 C           1.3168    2.5380   12.0350 C.ar    1  LIG1       -0.0280
     27 C          -0.5547   -0.8194   14.1898 C.ar    1  LIG1        0.0049
     28 C          -1.9431   -1.0889   14.0597 C.ar    1  LIG1        0.1632
     29 O          -2.7507   -0.3535   13.2059 O.3     1  LIG1       -0.4914
     30 C          -2.2107    0.5014   12.2156 C.3     1  LIG1        0.0790
     31 H          -5.3360   -3.2526   13.5865 H       1  LIG1        0.0660
     32 H          -3.7882   -4.0895   13.5586 H       1  LIG1        0.0660
     33 H          -4.0119   -2.5815   12.6433 H       1  LIG1        0.0660
     34 H          -2.1972   -3.6612   16.2628 H       1  LIG1        0.0656
     35 H           0.1988   -3.2050   16.4994 H       1  LIG1        0.0637
     36 H           1.9921   -1.9379   16.0547 H       1  LIG1        0.1537
     37 H           5.1792    1.9587   13.3427 H       1  LIG1        0.0835
     38 H           6.7836    0.9552   15.2767 H       1  LIG1        0.0829
     39 H           6.2332   -0.8019   17.3497 H       1  LIG1        0.0845
     40 H           4.6084    2.3515   11.2173 H       1  LIG1        0.0625
     41 H           3.8361    3.8129    9.3818 H       1  LIG1        0.0655
     42 H          -0.2487    3.6561    8.1758 H       1  LIG1        0.0712
     43 H          -0.2439    5.4020    7.9931 H       1  LIG1        0.0712
     44 H          -1.8882    4.6243    9.7487 H       1  LIG1        0.0495
     45 H          -0.7133    5.7290   10.3994 H       1  LIG1        0.0495
     46 H          -1.1280    3.4995   11.6583 H       1  LIG1        0.1463
     47 H           0.6104    2.2087   12.7810 H       1  LIG1        0.0644
     48 H          -0.1096   -0.0303   13.6230 H       1  LIG1        0.0674
     49 H          -3.0323    0.9527   11.6561 H       1  LIG1        0.0660
     50 H          -1.5950   -0.0476   11.5044 H       1  LIG1        0.0660
     51 H          -1.6381    1.3072   12.6663 H       1  LIG1        0.0660
@<TRIPOS>BOND
     1     1     2    1
     2     1    31    1
     3     1    32    1
     4     1    33    1
     5     2     3    1
     6     3     4   ar
     7     3    28   ar
     8     4     5   ar
     9     4    34    1
    10     5     6   ar
    11     5    35    1
    12     6     7    1
    13     6    27   ar
    14     7     8    1
    15     7    36    1
    16     8     9   ar
    17     8    16   ar
    18     9    10   ar
    19    10    11   ar
    20    10    17    1
    21    11    12   ar
    22    11    37    1
    23    12    13   ar
    24    12    16   ar
    25    13    14   ar
    26    13    38    1
    27    14    15   ar
    28    14    39    1
    29    15    16   ar
    30    17    18   ar
    31    17    26   ar
    32    18    19   ar
    33    18    40    1
    34    19    20   ar
    35    19    41    1
    36    20    21    1
    37    20    25   ar
    38    21    22    1
    39    22    23    1
    40    22    42    1
    41    22    43    1
    42    23    24    1
    43    23    44    1
    44    23    45    1
    45    24    25    1
    46    24    46    1
    47    25    26   ar
    48    26    47    1
    49    27    28   ar
    50    27    48    1
    51    28    29    1
    52    29    30    1
    53    30    49    1
    54    30    50    1
    55    30    51    1
