@<TRIPOS>MOLECULE
CHEMBL3265017
 47 51 0 0 0
SMALL
GASTEIGER
****
Structure written by MMmdl.
@<TRIPOS>ATOM
      1 C          -4.2568   -3.1045   13.5692 C.3     1  LIG1        0.0790
      2 O          -3.8735   -2.3609   14.7157 O.3     1  LIG1       -0.4915
      3 C          -2.5254   -2.1112   14.8167 C.ar    1  LIG1        0.1616
      4 C          -1.7461   -2.8700   15.6816 C.ar    1  LIG1       -0.0146
      5 C          -0.3903   -2.6103   15.8137 C.ar    1  LIG1       -0.0368
      6 C           0.2206   -1.5848   15.0868 C.ar    1  LIG1        0.0362
      7 N           1.6038   -1.3598   15.3228 N.pl3   1  LIG1       -0.2964
      8 C           2.5359   -0.4458   14.7609 C.ar    1  LIG1        0.1669
      9 N           2.1794    0.3745   13.7258 N.ar    1  LIG1       -0.2267
     10 C           3.1126    1.2387   13.2174 C.ar    1  LIG1        0.0897
     11 C           4.4180    1.2838   13.7013 C.ar    1  LIG1        0.0373
     12 N           4.7460    0.4885   14.7593 N.ar    1  LIG1       -0.3018
     13 C           5.8978    0.3783   15.4862 C.ar    1  LIG1        0.0294
     14 C           5.5892   -0.5252   16.5282 C.ar    1  LIG1        0.0465
     15 N           4.3768   -1.0429   16.3726 N.ar    1  LIG1       -0.2330
     16 C           3.8366   -0.3928   15.3256 C.ar    1  LIG1        0.1784
     17 C           2.6368    2.1616   12.1201 C.ar    1  LIG1        0.0039
     18 C           3.5454    2.6408   11.1618 C.ar    1  LIG1       -0.0518
     19 C           3.1453    3.4625   10.1097 C.ar    1  LIG1       -0.0505
     20 C           1.7994    3.8163   10.0176 C.ar    1  LIG1        0.0195
     21 C           0.9914    4.5941    9.1197 C.ar    1  LIG1        0.0569
     22 N          -0.2494    4.6053    9.5133 N.ar    1  LIG1       -0.1812
     23 N          -0.3372    3.8935   10.6271 N.ar    1  LIG1       -0.2769
     24 C           0.8851    3.3607   10.9950 C.ar    1  LIG1        0.0663
     25 C           1.2726    2.5413   12.0626 C.ar    1  LIG1       -0.0271
     26 C          -0.5549   -0.8187   14.1915 C.ar    1  LIG1        0.0049
     27 C          -1.9439   -1.0882   14.0610 C.ar    1  LIG1        0.1632
     28 O          -2.7521   -0.3548   13.2056 O.3     1  LIG1       -0.4914
     29 C          -2.2313    0.6456   12.3518 C.3     1  LIG1        0.0790
     30 H          -5.3359   -3.2524   13.5865 H       1  LIG1        0.0660
     31 H          -3.7887   -4.0896   13.5588 H       1  LIG1        0.0660
     32 H          -4.0122   -2.5810   12.6435 H       1  LIG1        0.0660
     33 H          -2.1953   -3.6619   16.2627 H       1  LIG1        0.0656
     34 H           0.1988   -3.2059   16.4986 H       1  LIG1        0.0637
     35 H           1.9915   -1.9358   16.0538 H       1  LIG1        0.1537
     36 H           5.1799    1.9624   13.3414 H       1  LIG1        0.0835
     37 H           6.7849    0.9516   15.2761 H       1  LIG1        0.0829
     38 H           6.2311   -0.7975   17.3512 H       1  LIG1        0.0845
     39 H           4.5870    2.3473   11.2231 H       1  LIG1        0.0624
     40 H           3.8550    3.8058    9.3820 H       1  LIG1        0.0625
     41 H           1.3018    5.1155    8.2351 H       1  LIG1        0.0854
     42 H          -1.2265    3.7931   11.0919 H       1  LIG1        0.1889
     43 H           0.5730    2.2156   12.8045 H       1  LIG1        0.0645
     44 H          -0.1088   -0.0311   13.6242 H       1  LIG1        0.0674
     45 H          -3.0501    1.0729   11.7701 H       1  LIG1        0.0660
     46 H          -1.5087    0.2343   11.6493 H       1  LIG1        0.0660
     47 H          -1.7811    1.4509   12.9278 H       1  LIG1        0.0660
@<TRIPOS>BOND
     1     1     2    1
     2     1    30    1
     3     1    31    1
     4     1    32    1
     5     2     3    1
     6     3     4   ar
     7     3    27   ar
     8     4     5   ar
     9     4    33    1
    10     5     6   ar
    11     5    34    1
    12     6     7    1
    13     6    26   ar
    14     7     8    1
    15     7    35    1
    16     8     9   ar
    17     8    16   ar
    18     9    10   ar
    19    10    11   ar
    20    10    17    1
    21    11    12   ar
    22    11    36    1
    23    12    13   ar
    24    12    16   ar
    25    13    14   ar
    26    13    37    1
    27    14    15   ar
    28    14    38    1
    29    15    16   ar
    30    17    18   ar
    31    17    25   ar
    32    18    19   ar
    33    18    39    1
    34    19    20   ar
    35    19    40    1
    36    20    21   ar
    37    20    24   ar
    38    21    22   ar
    39    21    41    1
    40    22    23   ar
    41    23    24   ar
    42    23    42    1
    43    24    25   ar
    44    25    43    1
    45    26    27   ar
    46    26    44    1
    47    27    28    1
    48    28    29    1
    49    29    45    1
    50    29    46    1
    51    29    47    1
