CHEMBL3265025
 OpenBabel02152110423D
Structure written by MMmdl.
 50 54  0  0  1  0  0  0  0  0999 V2000
   -4.2554   -3.1070   13.5667 C   0  0  0  0  0  0  0  0  0  0  0  0
   -3.8739   -2.3555   14.7096 O   0  0  0  0  0  0  0  0  0  0  0  0
   -2.5267   -2.1066   14.8132 C   0  0  0  0  0  0  0  0  0  0  0  0
   -1.7520   -2.8715   15.6749 C   0  0  0  0  0  0  0  0  0  0  0  0
   -0.3933   -2.6145   15.8117 C   0  0  0  0  0  0  0  0  0  0  0  0
    0.2196   -1.5878   15.0897 C   0  0  0  0  0  0  0  0  0  0  0  0
    1.6042   -1.3666   15.3298 N   0  0  0  0  0  0  0  0  0  0  0  0
    2.5249   -0.4338   14.7828 C   0  0  0  0  0  0  0  0  0  0  0  0
    2.1518    0.4044   13.7691 N   0  0  0  0  0  0  0  0  0  0  0  0
    3.0983    1.2388   13.2332 C   0  0  0  0  0  0  0  0  0  0  0  0
    4.4000    1.2764   13.7009 C   0  0  0  0  0  0  0  0  0  0  0  0
    4.7368    0.4928   14.7596 N   0  0  0  0  0  0  0  0  0  0  0  0
    5.8926    0.3911   15.4808 C   0  0  0  0  0  0  0  0  0  0  0  0
    5.6027   -0.5483   16.5053 C   0  0  0  0  0  0  0  0  0  0  0  0
    4.3885   -1.0602   16.3544 N   0  0  0  0  0  0  0  0  0  0  0  0
    3.8325   -0.3883   15.3309 C   0  0  0  0  0  0  0  0  0  0  0  0
    2.6407    2.1399   12.1271 C   0  0  0  0  0  0  0  0  0  0  0  0
    3.5584    2.6399   11.1674 C   0  0  0  0  0  0  0  0  0  0  0  0
    3.1117    3.4654   10.1220 C   0  0  0  0  0  0  0  0  0  0  0  0
    1.7626    3.8038   10.0403 C   0  0  0  0  0  0  0  0  0  0  0  0
    1.2975    4.6116    9.0072 N   0  0  0  0  0  0  0  0  0  0  0  0
   -0.0065    4.8513    8.7182 C   0  0  0  0  0  0  0  0  0  0  0  0
   -0.4123    5.6311    7.8553 O   0  0  0  0  0  0  0  0  0  0  0  0
   -0.9274    3.9668    9.6249 C   0  0  0  0  0  0  0  0  0  0  0  0
   -0.4391    3.7019   10.9584 O   0  0  0  0  0  0  0  0  0  0  0  0
    0.8806    3.3365   10.9991 C   0  0  0  0  0  0  0  0  0  0  0  0
    1.2955    2.5129   12.0280 C   0  0  0  0  0  0  0  0  0  0  0  0
   -0.5548   -0.8136   14.1938 C   0  0  0  0  0  0  0  0  0  0  0  0
   -1.9407   -1.0774   14.0650 C   0  0  0  0  0  0  0  0  0  0  0  0
   -2.7433   -0.3209   13.2263 O   0  0  0  0  0  0  0  0  0  0  0  0
   -2.1991    0.3702   12.1141 C   0  0  0  0  0  0  0  0  0  0  0  0
   -5.3362   -3.2511   13.5814 H   0  0  0  0  0  0  0  0  0  0  0  0
   -3.7862   -4.0919   13.5584 H   0  0  0  0  0  0  0  0  0  0  0  0
   -4.0024   -2.5902   12.6400 H   0  0  0  0  0  0  0  0  0  0  0  0
   -2.2087   -3.6617   16.2534 H   0  0  0  0  0  0  0  0  0  0  0  0
    0.1948   -3.2083   16.4987 H   0  0  0  0  0  0  0  0  0  0  0  0
    1.9997   -1.9671   16.0417 H   0  0  0  0  0  0  0  0  0  0  0  0
    5.1597    1.9397   13.3158 H   0  0  0  0  0  0  0  0  0  0  0  0
    6.7704    0.9889   15.2738 H   0  0  0  0  0  0  0  0  0  0  0  0
    6.2524   -0.8465   17.3109 H   0  0  0  0  0  0  0  0  0  0  0  0
    4.6017    2.3682   11.2211 H   0  0  0  0  0  0  0  0  0  0  0  0
    3.8116    3.8283    9.3793 H   0  0  0  0  0  0  0  0  0  0  0  0
    1.9664    5.0550    8.3957 H   0  0  0  0  0  0  0  0  0  0  0  0
   -1.0255    3.0007    9.1213 H   0  0  0  0  0  0  0  0  0  0  0  0
   -1.9053    4.4356    9.6360 H   0  0  0  0  0  0  0  0  0  0  0  0
    0.5824    2.1742   12.7618 H   0  0  0  0  0  0  0  0  0  0  0  0
   -0.1140   -0.0195   13.6280 H   0  0  0  0  0  0  0  0  0  0  0  0
   -3.0255    0.8261   11.5653 H   0  0  0  0  0  0  0  0  0  0  0  0
   -1.6971   -0.3166   11.4335 H   0  0  0  0  0  0  0  0  0  0  0  0
   -1.5230    1.1664   12.4132 H   0  0  0  0  0  0  0  0  0  0  0  0
  1  2  1  0  0  0  0
  1 32  1  0  0  0  0
  1 33  1  0  0  0  0
  1 34  1  0  0  0  0
  2  3  1  0  0  0  0
  3  4  2  0  0  0  0
  3 29  1  0  0  0  0
  4  5  1  0  0  0  0
  4 35  1  0  0  0  0
  5  6  2  0  0  0  0
  5 36  1  0  0  0  0
  6  7  1  0  0  0  0
  6 28  1  0  0  0  0
  7  8  1  0  0  0  0
  7 37  1  0  0  0  0
  8  9  2  0  0  0  0
  8 16  1  0  0  0  0
  9 10  1  0  0  0  0
 10 11  2  0  0  0  0
 10 17  1  0  0  0  0
 11 12  1  0  0  0  0
 11 38  1  0  0  0  0
 12 13  1  0  0  0  0
 12 16  1  0  0  0  0
 13 14  2  0  0  0  0
 13 39  1  0  0  0  0
 14 15  1  0  0  0  0
 14 40  1  0  0  0  0
 15 16  2  0  0  0  0
 17 18  2  0  0  0  0
 17 27  1  0  0  0  0
 18 19  1  0  0  0  0
 18 41  1  0  0  0  0
 19 20  2  0  0  0  0
 19 42  1  0  0  0  0
 20 21  1  0  0  0  0
 20 26  1  0  0  0  0
 21 22  1  0  0  0  0
 21 43  1  0  0  0  0
 22 23  2  0  0  0  0
 22 24  1  0  0  0  0
 24 25  1  0  0  0  0
 24 44  1  0  0  0  0
 24 45  1  0  0  0  0
 25 26  1  0  0  0  0
 26 27  2  0  0  0  0
 27 46  1  0  0  0  0
 28 29  2  0  0  0  0
 28 47  1  0  0  0  0
 29 30  1  0  0  0  0
 30 31  1  0  0  0  0
 31 48  1  0  0  0  0
 31 49  1  0  0  0  0
 31 50  1  0  0  0  0
M  END
>  <IC50[nM]>
33.4

$$$$
