@<TRIPOS>MOLECULE
CHEMBL3264996
 64 68 0 0 0
SMALL
GASTEIGER
****
Structure written by MMmdl.
@<TRIPOS>ATOM
      1 C          -8.4523    6.1854   12.2890 C.3     1  LIG1        0.0820
      2 O          -7.1802    5.7049   12.0537 O.3     1  LIG1       -0.4645
      3 C          -6.3297    6.2883   12.9360 C.2     1  LIG1        0.3389
      4 O          -6.6901    7.1009   13.7801 O.2     1  LIG1       -0.2450
      5 C          -4.9394    5.7785   12.6965 C.ar    1  LIG1        0.0591
      6 C          -4.7034    4.8507   11.6890 C.ar    1  LIG1       -0.0460
      7 C          -3.4153    4.3784   11.4671 C.ar    1  LIG1       -0.0397
      8 C          -2.3631    4.8339   12.2526 C.ar    1  LIG1        0.0337
      9 N          -1.0100    4.3378   12.0195 N.am    1  LIG1       -0.2815
     10 C          -0.5783    3.7648   10.8956 C.2     1  LIG1        0.2483
     11 O          -1.2977    3.5927    9.9160 O.2     1  LIG1       -0.2699
     12 C           0.8660    3.3707   10.9895 C.ar    1  LIG1        0.0376
     13 C           1.7879    3.8078   10.0318 C.ar    1  LIG1       -0.0496
     14 C           3.1294    3.4499   10.1277 C.ar    1  LIG1       -0.0604
     15 C           3.5566    2.6280   11.1666 C.ar    1  LIG1       -0.0525
     16 C           2.6564    2.1560   12.1340 C.ar    1  LIG1        0.0026
     17 C           1.3140    2.5576   12.0419 C.ar    1  LIG1       -0.0404
     18 C           3.1227    1.2406   13.2181 C.ar    1  LIG1        0.0897
     19 C           4.4207    1.3039   13.7175 C.ar    1  LIG1        0.0373
     20 N           4.7482    0.4921   14.7654 N.ar    1  LIG1       -0.3018
     21 C           5.8898    0.3836   15.5035 C.ar    1  LIG1        0.0294
     22 C           5.5715   -0.5089   16.5177 C.ar    1  LIG1        0.0465
     23 N           4.3818   -1.0543   16.3920 N.ar    1  LIG1       -0.2330
     24 C           3.8330   -0.4170   15.3252 C.ar    1  LIG1        0.1784
     25 C           2.5452   -0.4689   14.7536 C.ar    1  LIG1        0.1669
     26 N           1.5930   -1.3491   15.3060 N.pl3   1  LIG1       -0.2964
     27 C           0.2220   -1.5829   15.0890 C.ar    1  LIG1        0.0362
     28 C          -0.3863   -2.6106   15.8150 C.ar    1  LIG1       -0.0368
     29 C          -1.7497   -2.8673   15.6804 C.ar    1  LIG1       -0.0146
     30 C          -2.5261   -2.1057   14.8053 C.ar    1  LIG1        0.1616
     31 O          -3.8740   -2.3535   14.7166 O.3     1  LIG1       -0.4915
     32 C          -4.2555   -3.1029   13.5707 C.3     1  LIG1        0.0790
     33 C          -1.9389   -1.0760   14.0580 C.ar    1  LIG1        0.1632
     34 O          -2.6991   -0.3052   13.2022 O.3     1  LIG1       -0.4914
     35 C          -2.0020    0.6747   12.5251 C.3     1  LIG1        0.0790
     36 C          -0.5664   -0.8256   14.2115 C.ar    1  LIG1        0.0049
     37 N           2.2178    0.3551   13.7190 N.ar    1  LIG1       -0.2267
     38 C          -2.5991    5.7618   13.2601 C.ar    1  LIG1       -0.0397
     39 C          -3.8873    6.2341   13.4820 C.ar    1  LIG1       -0.0460
     40 H          -9.1495    5.7265   11.5880 H       1  LIG1        0.0661
     41 H          -8.4625    7.2672   12.1559 H       1  LIG1        0.0661
     42 H          -8.7497    5.9420   13.3091 H       1  LIG1        0.0661
     43 H          -5.5226    4.4960   11.0774 H       1  LIG1        0.0626
     44 H          -3.2316    3.6560   10.6827 H       1  LIG1        0.0636
     45 H          -0.4537    4.4986   12.8470 H       1  LIG1        0.1551
     46 H           1.4564    4.4350    9.2166 H       1  LIG1        0.0625
     47 H           3.8342    3.7939    9.3845 H       1  LIG1        0.0618
     48 H           4.5934    2.3309   11.2002 H       1  LIG1        0.0624
     49 H           0.6053    2.2130   12.7811 H       1  LIG1        0.0632
     50 H           5.1701    2.0030   13.3719 H       1  LIG1        0.0835
     51 H           6.7656    0.9739   15.2897 H       1  LIG1        0.0829
     52 H           6.2088   -0.8330   17.3301 H       1  LIG1        0.0845
     53 H           2.0245   -1.8852   16.0480 H       1  LIG1        0.1537
     54 H           0.1911   -3.2101   16.5029 H       1  LIG1        0.0637
     55 H          -2.2100   -3.6528   16.2607 H       1  LIG1        0.0656
     56 H          -5.3306   -3.2805   13.5887 H       1  LIG1        0.0660
     57 H          -3.7531   -4.0710   13.5510 H       1  LIG1        0.0660
     58 H          -4.0176   -2.5677   12.6505 H       1  LIG1        0.0660
     59 H          -2.6851    1.2257   11.8788 H       1  LIG1        0.0660
     60 H          -1.2219    0.2131   11.9198 H       1  LIG1        0.0660
     61 H          -1.5485    1.3591   13.2420 H       1  LIG1        0.0660
     62 H          -0.1547   -0.0168   13.6337 H       1  LIG1        0.0674
     63 H          -1.7800    6.1164   13.8717 H       1  LIG1        0.0636
     64 H          -4.0710    6.9565   14.2664 H       1  LIG1        0.0626
@<TRIPOS>BOND
     1     1     2    1
     2     1    40    1
     3     1    41    1
     4     1    42    1
     5     2     3    1
     6     3     4    2
     7     3     5    1
     8     5     6   ar
     9     5    39   ar
    10     6     7   ar
    11     6    43    1
    12     7     8   ar
    13     7    44    1
    14     8     9    1
    15     8    38   ar
    16     9    10   am
    17     9    45    1
    18    10    11    2
    19    10    12    1
    20    12    13   ar
    21    12    17   ar
    22    13    14   ar
    23    13    46    1
    24    14    15   ar
    25    14    47    1
    26    15    16   ar
    27    15    48    1
    28    16    17   ar
    29    16    18    1
    30    17    49    1
    31    18    19   ar
    32    18    37   ar
    33    19    20   ar
    34    19    50    1
    35    20    21   ar
    36    20    24   ar
    37    21    22   ar
    38    21    51    1
    39    22    23   ar
    40    22    52    1
    41    23    24   ar
    42    24    25   ar
    43    25    26    1
    44    25    37   ar
    45    26    27    1
    46    26    53    1
    47    27    28   ar
    48    27    36   ar
    49    28    29   ar
    50    28    54    1
    51    29    30   ar
    52    29    55    1
    53    30    31    1
    54    30    33   ar
    55    31    32    1
    56    32    56    1
    57    32    57    1
    58    32    58    1
    59    33    34    1
    60    33    36   ar
    61    34    35    1
    62    35    59    1
    63    35    60    1
    64    35    61    1
    65    36    62    1
    66    38    39   ar
    67    38    63    1
    68    39    64    1
