CHEMBL3265011
 OpenBabel02152110423D
Structure written by MMmdl.
 51 54  0  0  1  0  0  0  0  0999 V2000
   -4.2555   -3.1029   13.5707 C   0  0  0  0  0  0  0  0  0  0  0  0
   -3.8740   -2.3535   14.7166 O   0  0  0  0  0  0  0  0  0  0  0  0
   -2.5261   -2.1057   14.8053 C   0  0  0  0  0  0  0  0  0  0  0  0
   -1.7497   -2.8673   15.6804 C   0  0  0  0  0  0  0  0  0  0  0  0
   -0.3863   -2.6106   15.8150 C   0  0  0  0  0  0  0  0  0  0  0  0
    0.2220   -1.5829   15.0890 C   0  0  0  0  0  0  0  0  0  0  0  0
    1.5930   -1.3491   15.3060 N   0  0  0  0  0  0  0  0  0  0  0  0
    2.5452   -0.4689   14.7536 C   0  0  0  0  0  0  0  0  0  0  0  0
    2.2178    0.3551   13.7190 N   0  0  0  0  0  0  0  0  0  0  0  0
    3.1227    1.2406   13.2181 C   0  0  0  0  0  0  0  0  0  0  0  0
    4.4207    1.3039   13.7175 C   0  0  0  0  0  0  0  0  0  0  0  0
    4.7482    0.4921   14.7654 N   0  0  0  0  0  0  0  0  0  0  0  0
    5.8898    0.3836   15.5035 C   0  0  0  0  0  0  0  0  0  0  0  0
    5.5715   -0.5089   16.5177 C   0  0  0  0  0  0  0  0  0  0  0  0
    4.3818   -1.0543   16.3920 N   0  0  0  0  0  0  0  0  0  0  0  0
    3.8330   -0.4170   15.3252 C   0  0  0  0  0  0  0  0  0  0  0  0
    2.6564    2.1560   12.1340 C   0  0  0  0  0  0  0  0  0  0  0  0
    1.3140    2.5576   12.0419 C   0  0  0  0  0  0  0  0  0  0  0  0
    0.8660    3.3707   10.9895 C   0  0  0  0  0  0  0  0  0  0  0  0
    1.7879    3.8078   10.0318 C   0  0  0  0  0  0  0  0  0  0  0  0
    3.1294    3.4499   10.1277 C   0  0  0  0  0  0  0  0  0  0  0  0
    3.5566    2.6280   11.1666 C   0  0  0  0  0  0  0  0  0  0  0  0
    4.9972    2.2126   11.2105 C   0  0  0  0  0  0  0  0  0  0  0  0
   -0.5881    3.7303   10.8428 C   0  0  0  0  0  0  0  0  0  0  0  0
   -1.1092    3.7021    9.7263 O   0  0  0  0  0  0  0  0  0  0  0  0
   -1.2179    4.0963   11.9826 N   0  0  0  0  0  0  0  0  0  0  0  0
   -0.5664   -0.8256   14.2115 C   0  0  0  0  0  0  0  0  0  0  0  0
   -1.9389   -1.0760   14.0580 C   0  0  0  0  0  0  0  0  0  0  0  0
   -2.6987   -0.3081   13.1992 O   0  0  0  0  0  0  0  0  0  0  0  0
   -2.0021    0.6722   12.5223 C   0  0  0  0  0  0  0  0  0  0  0  0
   -5.3290   -3.2895   13.5939 H   0  0  0  0  0  0  0  0  0  0  0  0
   -3.7452   -4.0667   13.5449 H   0  0  0  0  0  0  0  0  0  0  0  0
   -4.0270   -2.5627   12.6510 H   0  0  0  0  0  0  0  0  0  0  0  0
   -2.2099   -3.6533   16.2602 H   0  0  0  0  0  0  0  0  0  0  0  0
    0.1911   -3.2106   16.5025 H   0  0  0  0  0  0  0  0  0  0  0  0
    2.0257   -1.8895   16.0445 H   0  0  0  0  0  0  0  0  0  0  0  0
    5.1717    2.0006   13.3700 H   0  0  0  0  0  0  0  0  0  0  0  0
    6.7663    0.9729   15.2892 H   0  0  0  0  0  0  0  0  0  0  0  0
    6.2094   -0.8335   17.3296 H   0  0  0  0  0  0  0  0  0  0  0  0
    0.6068    2.1879   12.7700 H   0  0  0  0  0  0  0  0  0  0  0  0
    1.4521    4.4207    9.2063 H   0  0  0  0  0  0  0  0  0  0  0  0
    3.8319    3.7891    9.3801 H   0  0  0  0  0  0  0  0  0  0  0  0
    5.5347    2.6775   10.3840 H   0  0  0  0  0  0  0  0  0  0  0  0
    5.0655    1.1282   11.1241 H   0  0  0  0  0  0  0  0  0  0  0  0
    5.4384    2.5303   12.1552 H   0  0  0  0  0  0  0  0  0  0  0  0
   -2.1896    4.3530   11.9274 H   0  0  0  0  0  0  0  0  0  0  0  0
   -0.7063    4.1173   12.8487 H   0  0  0  0  0  0  0  0  0  0  0  0
   -0.1540   -0.0199   13.6303 H   0  0  0  0  0  0  0  0  0  0  0  0
   -2.6849    1.2208   11.8735 H   0  0  0  0  0  0  0  0  0  0  0  0
   -1.2195    0.2114   11.9195 H   0  0  0  0  0  0  0  0  0  0  0  0
   -1.5517    1.3587   13.2392 H   0  0  0  0  0  0  0  0  0  0  0  0
  1  2  1  0  0  0  0
  1 31  1  0  0  0  0
  1 32  1  0  0  0  0
  1 33  1  0  0  0  0
  2  3  1  0  0  0  0
  3  4  2  0  0  0  0
  3 28  1  0  0  0  0
  4  5  1  0  0  0  0
  4 34  1  0  0  0  0
  5  6  2  0  0  0  0
  5 35  1  0  0  0  0
  6  7  1  0  0  0  0
  6 27  1  0  0  0  0
  7  8  1  0  0  0  0
  7 36  1  0  0  0  0
  8  9  2  0  0  0  0
  8 16  1  0  0  0  0
  9 10  1  0  0  0  0
 10 11  2  0  0  0  0
 10 17  1  0  0  0  0
 11 12  1  0  0  0  0
 11 37  1  0  0  0  0
 12 13  1  0  0  0  0
 12 16  1  0  0  0  0
 13 14  2  0  0  0  0
 13 38  1  0  0  0  0
 14 15  1  0  0  0  0
 14 39  1  0  0  0  0
 15 16  2  0  0  0  0
 17 18  2  0  0  0  0
 17 22  1  0  0  0  0
 18 19  1  0  0  0  0
 18 40  1  0  0  0  0
 19 20  2  0  0  0  0
 19 24  1  0  0  0  0
 20 21  1  0  0  0  0
 20 41  1  0  0  0  0
 21 22  2  0  0  0  0
 21 42  1  0  0  0  0
 22 23  1  0  0  0  0
 23 43  1  0  0  0  0
 23 44  1  0  0  0  0
 23 45  1  0  0  0  0
 24 25  2  0  0  0  0
 24 26  1  0  0  0  0
 26 46  1  0  0  0  0
 26 47  1  0  0  0  0
 27 28  2  0  0  0  0
 27 48  1  0  0  0  0
 28 29  1  0  0  0  0
 29 30  1  0  0  0  0
 30 49  1  0  0  0  0
 30 50  1  0  0  0  0
 30 51  1  0  0  0  0
M  END
>  <IC50[nM]>
466

$$$$
