CHEMBL3265003
 OpenBabel02152110423D
Structure written by MMmdl.
 65 70  0  0  1  0  0  0  0  0999 V2000
   -4.2555   -3.1029   13.5707 C   0  0  0  0  0  0  0  0  0  0  0  0
   -3.8740   -2.3535   14.7166 O   0  0  0  0  0  0  0  0  0  0  0  0
   -2.5261   -2.1057   14.8053 C   0  0  0  0  0  0  0  0  0  0  0  0
   -1.7497   -2.8673   15.6804 C   0  0  0  0  0  0  0  0  0  0  0  0
   -0.3863   -2.6106   15.8150 C   0  0  0  0  0  0  0  0  0  0  0  0
    0.2220   -1.5829   15.0890 C   0  0  0  0  0  0  0  0  0  0  0  0
    1.5930   -1.3491   15.3060 N   0  0  0  0  0  0  0  0  0  0  0  0
    2.5452   -0.4689   14.7536 C   0  0  0  0  0  0  0  0  0  0  0  0
    2.2178    0.3551   13.7190 N   0  0  0  0  0  0  0  0  0  0  0  0
    3.1227    1.2406   13.2181 C   0  0  0  0  0  0  0  0  0  0  0  0
    4.4207    1.3039   13.7175 C   0  0  0  0  0  0  0  0  0  0  0  0
    4.7482    0.4921   14.7654 N   0  0  0  0  0  0  0  0  0  0  0  0
    5.8898    0.3836   15.5035 C   0  0  0  0  0  0  0  0  0  0  0  0
    5.5715   -0.5089   16.5177 C   0  0  0  0  0  0  0  0  0  0  0  0
    4.3818   -1.0543   16.3920 N   0  0  0  0  0  0  0  0  0  0  0  0
    3.8330   -0.4170   15.3252 C   0  0  0  0  0  0  0  0  0  0  0  0
    2.6564    2.1560   12.1340 C   0  0  0  0  0  0  0  0  0  0  0  0
    3.5566    2.6280   11.1666 C   0  0  0  0  0  0  0  0  0  0  0  0
    3.1294    3.4499   10.1277 C   0  0  0  0  0  0  0  0  0  0  0  0
    1.7879    3.8078   10.0318 C   0  0  0  0  0  0  0  0  0  0  0  0
    0.8660    3.3707   10.9895 C   0  0  0  0  0  0  0  0  0  0  0  0
    1.3140    2.5576   12.0419 C   0  0  0  0  0  0  0  0  0  0  0  0
   -0.5881    3.7303   10.8428 C   0  0  0  0  0  0  0  0  0  0  0  0
   -1.1092    3.7021    9.7263 O   0  0  0  0  0  0  0  0  0  0  0  0
   -1.2179    4.0963   11.9826 N   0  0  0  0  0  0  0  0  0  0  0  0
   -2.5548    4.5074   12.1308 C   0  0  0  0  0  0  0  0  0  0  0  0
   -3.5938    4.0626   11.3021 C   0  0  0  0  0  0  0  0  0  0  0  0
   -4.8906    4.5243   11.5030 C   0  0  0  0  0  0  0  0  0  0  0  0
   -5.1795    5.4211   12.5413 C   0  0  0  0  0  0  0  0  0  0  0  0
   -4.1385    5.8321   13.3869 C   0  0  0  0  0  0  0  0  0  0  0  0
   -2.8376    5.3818   13.1807 C   0  0  0  0  0  0  0  0  0  0  0  0
   -6.5795    5.9152   12.7554 C   0  0  0  0  0  0  0  0  0  0  0  0
   -7.8001    5.5757   12.2009 C   0  0  0  0  0  0  0  0  0  0  0  0
   -8.7342    6.4074   12.8268 C   0  0  0  0  0  0  0  0  0  0  0  0
   -8.1709    7.2095   13.7036 N   0  0  0  0  0  0  0  0  0  0  0  0
   -6.8624    6.9071   13.6570 N   0  0  0  0  0  0  0  0  0  0  0  0
   -0.5664   -0.8256   14.2115 C   0  0  0  0  0  0  0  0  0  0  0  0
   -1.9389   -1.0760   14.0580 C   0  0  0  0  0  0  0  0  0  0  0  0
   -2.7621   -0.3534   13.2116 O   0  0  0  0  0  0  0  0  0  0  0  0
   -2.2029    0.6764   12.4028 C   0  0  0  0  0  0  0  0  0  0  0  0
   -3.7319   -4.0591   13.5349 H   0  0  0  0  0  0  0  0  0  0  0  0
   -4.0488   -2.5587   12.6486 H   0  0  0  0  0  0  0  0  0  0  0  0
   -5.3256   -3.3057   13.6062 H   0  0  0  0  0  0  0  0  0  0  0  0
   -2.2115   -3.6525   16.2595 H   0  0  0  0  0  0  0  0  0  0  0  0
    0.1907   -3.2107   16.5029 H   0  0  0  0  0  0  0  0  0  0  0  0
    2.0263   -1.8894   16.0446 H   0  0  0  0  0  0  0  0  0  0  0  0
    5.1725    2.0000   13.3704 H   0  0  0  0  0  0  0  0  0  0  0  0
    6.7667    0.9724   15.2895 H   0  0  0  0  0  0  0  0  0  0  0  0
    6.2096   -0.8335   17.3296 H   0  0  0  0  0  0  0  0  0  0  0  0
    4.5932    2.3291   11.1982 H   0  0  0  0  0  0  0  0  0  0  0  0
    3.8321    3.7889    9.3800 H   0  0  0  0  0  0  0  0  0  0  0  0
    1.4532    4.4207    9.2055 H   0  0  0  0  0  0  0  0  0  0  0  0
    0.6102    2.1883   12.7736 H   0  0  0  0  0  0  0  0  0  0  0  0
   -0.6256    4.1766   12.7928 H   0  0  0  0  0  0  0  0  0  0  0  0
   -3.4137    3.3677   10.4946 H   0  0  0  0  0  0  0  0  0  0  0  0
   -5.6833    4.1870   10.8507 H   0  0  0  0  0  0  0  0  0  0  0  0
   -4.3476    6.5138   14.1986 H   0  0  0  0  0  0  0  0  0  0  0  0
   -2.0539    5.7265   13.8396 H   0  0  0  0  0  0  0  0  0  0  0  0
   -7.9941    4.8267   11.4440 H   0  0  0  0  0  0  0  0  0  0  0  0
   -9.8018    6.4182   12.6378 H   0  0  0  0  0  0  0  0  0  0  0  0
   -6.1655    7.3743   14.2366 H   0  0  0  0  0  0  0  0  0  0  0  0
   -0.1266   -0.0266   13.6477 H   0  0  0  0  0  0  0  0  0  0  0  0
   -1.4235    0.2925   11.7430 H   0  0  0  0  0  0  0  0  0  0  0  0
   -1.7941    1.4768   13.0196 H   0  0  0  0  0  0  0  0  0  0  0  0
   -2.9831    1.1078   11.7761 H   0  0  0  0  0  0  0  0  0  0  0  0
  1  2  1  0  0  0  0
  1 41  1  0  0  0  0
  1 42  1  0  0  0  0
  1 43  1  0  0  0  0
  2  3  1  0  0  0  0
  3  4  2  0  0  0  0
  3 38  1  0  0  0  0
  4  5  1  0  0  0  0
  4 44  1  0  0  0  0
  5  6  2  0  0  0  0
  5 45  1  0  0  0  0
  6  7  1  0  0  0  0
  6 37  1  0  0  0  0
  7  8  1  0  0  0  0
  7 46  1  0  0  0  0
  8  9  2  0  0  0  0
  8 16  1  0  0  0  0
  9 10  1  0  0  0  0
 10 11  2  0  0  0  0
 10 17  1  0  0  0  0
 11 12  1  0  0  0  0
 11 47  1  0  0  0  0
 12 13  1  0  0  0  0
 12 16  1  0  0  0  0
 13 14  2  0  0  0  0
 13 48  1  0  0  0  0
 14 15  1  0  0  0  0
 14 49  1  0  0  0  0
 15 16  2  0  0  0  0
 17 18  2  0  0  0  0
 17 22  1  0  0  0  0
 18 19  1  0  0  0  0
 18 50  1  0  0  0  0
 19 20  2  0  0  0  0
 19 51  1  0  0  0  0
 20 21  1  0  0  0  0
 20 52  1  0  0  0  0
 21 22  2  0  0  0  0
 21 23  1  0  0  0  0
 22 53  1  0  0  0  0
 23 24  2  0  0  0  0
 23 25  1  0  0  0  0
 25 26  1  0  0  0  0
 25 54  1  0  0  0  0
 26 27  2  0  0  0  0
 26 31  1  0  0  0  0
 27 28  1  0  0  0  0
 27 55  1  0  0  0  0
 28 29  2  0  0  0  0
 28 56  1  0  0  0  0
 29 30  1  0  0  0  0
 29 32  1  0  0  0  0
 30 31  2  0  0  0  0
 30 57  1  0  0  0  0
 31 58  1  0  0  0  0
 32 36  1  0  0  0  0
 32 33  2  0  0  0  0
 33 34  1  0  0  0  0
 33 59  1  0  0  0  0
 34 60  1  0  0  0  0
 34 35  2  0  0  0  0
 35 36  1  0  0  0  0
 36 61  1  0  0  0  0
 37 38  2  0  0  0  0
 37 62  1  0  0  0  0
 38 39  1  0  0  0  0
 39 40  1  0  0  0  0
 40 63  1  0  0  0  0
 40 64  1  0  0  0  0
 40 65  1  0  0  0  0
M  END
>  <IC50[nM]>
11.7

$$$$
