@<TRIPOS>MOLECULE
CHEMBL3265028
 43 47 0 0 0
SMALL
GASTEIGER
****
Structure written by MMmdl.
@<TRIPOS>ATOM
      1 C          -1.9509    0.6794   12.3551 C.3     1  LIG1        0.0788
      2 O          -2.6175   -0.2972   13.1574 O.3     1  LIG1       -0.4951
      3 C          -1.8696   -1.0545   14.0449 C.ar    1  LIG1        0.1219
      4 C          -2.5006   -2.0822   14.7698 C.ar    1  LIG1       -0.0198
      5 C          -1.7540   -2.8524   15.6585 C.ar    1  LIG1       -0.0566
      6 C          -0.3950   -2.6038   15.8322 C.ar    1  LIG1       -0.0403
      7 C           0.2324   -1.5851   15.1260 C.ar    1  LIG1        0.0359
      8 N           1.6168   -1.3648   15.3699 N.pl3   1  LIG1       -0.2964
      9 C           2.5420   -0.4570   14.7968 C.ar    1  LIG1        0.1669
     10 N           2.1720    0.3831   13.7786 N.ar    1  LIG1       -0.2267
     11 C           3.1103    1.2383   13.2419 C.ar    1  LIG1        0.0897
     12 C           4.3968    1.2792   13.7037 C.ar    1  LIG1        0.0373
     13 N           4.7381    0.4944   14.7692 N.ar    1  LIG1       -0.3018
     14 C           5.8928    0.3893   15.4752 C.ar    1  LIG1        0.0294
     15 C           5.6110   -0.5494   16.5068 C.ar    1  LIG1        0.0465
     16 N           4.4002   -1.0741   16.3612 N.ar    1  LIG1       -0.2330
     17 C           3.8444   -0.3918   15.3407 C.ar    1  LIG1        0.1784
     18 C           2.6282    2.1384   12.1226 C.ar    1  LIG1        0.0039
     19 C           3.5442    2.6282   11.1721 C.ar    1  LIG1       -0.0518
     20 C           3.1497    3.4552   10.1130 C.ar    1  LIG1       -0.0505
     21 C           1.8035    3.8107   10.0226 C.ar    1  LIG1        0.0195
     22 C           0.9910    4.6054    9.1269 C.ar    1  LIG1        0.0569
     23 N          -0.2498    4.6130    9.5297 N.ar    1  LIG1       -0.1812
     24 N          -0.3276    3.8827   10.6287 N.ar    1  LIG1       -0.2769
     25 C           0.8922    3.3455   10.9868 C.ar    1  LIG1        0.0663
     26 C           1.2628    2.5119   12.0466 C.ar    1  LIG1       -0.0271
     27 C          -0.5121   -0.8124   14.2226 C.ar    1  LIG1        0.0012
     28 H          -2.6470    1.2080   11.7073 H       1  LIG1        0.0660
     29 H          -1.2045    0.2004   11.7318 H       1  LIG1        0.0660
     30 H          -1.4794    1.4174   12.9913 H       1  LIG1        0.0660
     31 H          -3.5460   -2.2812   14.6470 H       1  LIG1        0.0654
     32 H          -2.2312   -3.6425   16.2160 H       1  LIG1        0.0619
     33 H           0.1711   -3.2085   16.5377 H       1  LIG1        0.0636
     34 H           1.9989   -1.9290   16.1054 H       1  LIG1        0.1537
     35 H           5.1566    1.9436   13.3074 H       1  LIG1        0.0835
     36 H           6.7779    0.9754   15.2698 H       1  LIG1        0.0829
     37 H           6.2564   -0.8382   17.2944 H       1  LIG1        0.0845
     38 H           4.5845    2.3474   11.2386 H       1  LIG1        0.0624
     39 H           3.8685    3.8054    9.3873 H       1  LIG1        0.0625
     40 H           1.3045    5.1360    8.2411 H       1  LIG1        0.0854
     41 H          -1.2156    3.7788   11.0960 H       1  LIG1        0.1889
     42 H           0.5640    2.1751   12.7727 H       1  LIG1        0.0645
     43 H          -0.0605   -0.0305   13.6582 H       1  LIG1        0.0673
@<TRIPOS>BOND
     1     1     2    1
     2     1    28    1
     3     1    29    1
     4     1    30    1
     5     2     3    1
     6     3     4   ar
     7     3    27   ar
     8     4     5   ar
     9     4    31    1
    10     5     6   ar
    11     5    32    1
    12     6     7   ar
    13     6    33    1
    14     7     8    1
    15     7    27   ar
    16     8     9    1
    17     8    34    1
    18     9    10   ar
    19     9    17   ar
    20    10    11   ar
    21    11    12   ar
    22    11    18    1
    23    12    13   ar
    24    12    35    1
    25    13    14   ar
    26    13    17   ar
    27    14    15   ar
    28    14    36    1
    29    15    16   ar
    30    15    37    1
    31    16    17   ar
    32    18    19   ar
    33    18    26   ar
    34    19    20   ar
    35    19    38    1
    36    20    21   ar
    37    20    39    1
    38    21    22   ar
    39    21    25   ar
    40    22    23   ar
    41    22    40    1
    42    23    24   ar
    43    24    25   ar
    44    24    41    1
    45    25    26   ar
    46    26    42    1
    47    27    43    1
