CHEMBL3265029
 OpenBabel02152110423D
Structure written by MMmdl.
 43 47  0  0  1  0  0  0  0  0999 V2000
   -4.2507   -3.1011   13.5632 C   0  0  0  0  0  0  0  0  0  0  0  0
   -3.8673   -2.3305   14.6902 O   0  0  0  0  0  0  0  0  0  0  0  0
   -2.5168   -2.0957   14.8067 C   0  0  0  0  0  0  0  0  0  0  0  0
   -1.9172   -1.0702   14.0633 C   0  0  0  0  0  0  0  0  0  0  0  0
   -0.5491   -0.8101   14.2065 C   0  0  0  0  0  0  0  0  0  0  0  0
    0.2199   -1.5870   15.0928 C   0  0  0  0  0  0  0  0  0  0  0  0
    1.6080   -1.3729   15.3230 N   0  0  0  0  0  0  0  0  0  0  0  0
    2.5324   -0.4358   14.7759 C   0  0  0  0  0  0  0  0  0  0  0  0
    2.1663    0.3860   13.7470 N   0  0  0  0  0  0  0  0  0  0  0  0
    3.0989    1.2355   13.2241 C   0  0  0  0  0  0  0  0  0  0  0  0
    4.4088    1.2797   13.7018 C   0  0  0  0  0  0  0  0  0  0  0  0
    4.7449    0.4891   14.7567 N   0  0  0  0  0  0  0  0  0  0  0  0
    5.8960    0.3776   15.4790 C   0  0  0  0  0  0  0  0  0  0  0  0
    5.5960   -0.5292   16.5069 C   0  0  0  0  0  0  0  0  0  0  0  0
    4.3874   -1.0583   16.3532 N   0  0  0  0  0  0  0  0  0  0  0  0
    3.8346   -0.3857   15.3305 C   0  0  0  0  0  0  0  0  0  0  0  0
    2.6263    2.1555   12.1187 C   0  0  0  0  0  0  0  0  0  0  0  0
    3.5439    2.6382   11.1639 C   0  0  0  0  0  0  0  0  0  0  0  0
    3.1468    3.4593   10.1107 C   0  0  0  0  0  0  0  0  0  0  0  0
    1.8029    3.8136   10.0160 C   0  0  0  0  0  0  0  0  0  0  0  0
    0.9932    4.6001    9.1195 C   0  0  0  0  0  0  0  0  0  0  0  0
   -0.2428    4.6141    9.5158 N   0  0  0  0  0  0  0  0  0  0  0  0
   -0.3351    3.8865   10.6250 N   0  0  0  0  0  0  0  0  0  0  0  0
    0.8815    3.3478   10.9920 C   0  0  0  0  0  0  0  0  0  0  0  0
    1.2640    2.5243   12.0473 C   0  0  0  0  0  0  0  0  0  0  0  0
   -0.3962   -2.6164   15.8132 C   0  0  0  0  0  0  0  0  0  0  0  0
   -1.7505   -2.8679   15.6748 C   0  0  0  0  0  0  0  0  0  0  0  0
   -5.3298   -3.2473   13.5826 H   0  0  0  0  0  0  0  0  0  0  0  0
   -3.7850   -4.0873   13.5638 H   0  0  0  0  0  0  0  0  0  0  0  0
   -4.0025   -2.5878   12.6346 H   0  0  0  0  0  0  0  0  0  0  0  0
   -2.5171   -0.4778   13.3832 H   0  0  0  0  0  0  0  0  0  0  0  0
   -0.1065   -0.0198   13.6433 H   0  0  0  0  0  0  0  0  0  0  0  0
    2.0019   -1.9714   16.0327 H   0  0  0  0  0  0  0  0  0  0  0  0
    5.1639    1.9590   13.3284 H   0  0  0  0  0  0  0  0  0  0  0  0
    6.7685    0.9695   15.2724 H   0  0  0  0  0  0  0  0  0  0  0  0
    6.2504   -0.7908   17.3182 H   0  0  0  0  0  0  0  0  0  0  0  0
    4.5902    2.3441   11.2391 H   0  0  0  0  0  0  0  0  0  0  0  0
    3.8565    3.8021    9.3952 H   0  0  0  0  0  0  0  0  0  0  0  0
    1.2988    5.1235    8.2486 H   0  0  0  0  0  0  0  0  0  0  0  0
   -1.2242    3.7838   11.0912 H   0  0  0  0  0  0  0  0  0  0  0  0
    0.5635    2.1916   12.7791 H   0  0  0  0  0  0  0  0  0  0  0  0
    0.1890   -3.2156   16.4997 H   0  0  0  0  0  0  0  0  0  0  0  0
   -2.2053   -3.6566   16.2497 H   0  0  0  0  0  0  0  0  0  0  0  0
  1  2  1  0  0  0  0
  1 28  1  0  0  0  0
  1 29  1  0  0  0  0
  1 30  1  0  0  0  0
  2  3  1  0  0  0  0
  3  4  2  0  0  0  0
  3 27  1  0  0  0  0
  4  5  1  0  0  0  0
  4 31  1  0  0  0  0
  5  6  2  0  0  0  0
  5 32  1  0  0  0  0
  6  7  1  0  0  0  0
  6 26  1  0  0  0  0
  7  8  1  0  0  0  0
  7 33  1  0  0  0  0
  8  9  2  0  0  0  0
  8 16  1  0  0  0  0
  9 10  1  0  0  0  0
 10 11  2  0  0  0  0
 10 17  1  0  0  0  0
 11 12  1  0  0  0  0
 11 34  1  0  0  0  0
 12 13  1  0  0  0  0
 12 16  1  0  0  0  0
 13 14  2  0  0  0  0
 13 35  1  0  0  0  0
 14 15  1  0  0  0  0
 14 36  1  0  0  0  0
 15 16  2  0  0  0  0
 17 18  2  0  0  0  0
 17 25  1  0  0  0  0
 18 19  1  0  0  0  0
 18 37  1  0  0  0  0
 19 20  2  0  0  0  0
 19 38  1  0  0  0  0
 20 21  1  0  0  0  0
 20 24  1  0  0  0  0
 21 22  2  0  0  0  0
 21 39  1  0  0  0  0
 22 23  1  0  0  0  0
 23 24  1  0  0  0  0
 23 40  1  0  0  0  0
 24 25  2  0  0  0  0
 25 41  1  0  0  0  0
 26 27  2  0  0  0  0
 26 42  1  0  0  0  0
 27 43  1  0  0  0  0
M  END
>  <IC50[nM]>
7

$$$$
