CHEMBL3265021
 OpenBabel02152110423D
Structure written by MMmdl.
 47 51  0  0  1  0  0  0  0  0999 V2000
   -4.2567   -3.1041   13.5694 C   0  0  0  0  0  0  0  0  0  0  0  0
   -3.8737   -2.3599   14.7156 O   0  0  0  0  0  0  0  0  0  0  0  0
   -2.5258   -2.1107   14.8171 C   0  0  0  0  0  0  0  0  0  0  0  0
   -1.7454   -2.8698   15.6820 C   0  0  0  0  0  0  0  0  0  0  0  0
   -0.3904   -2.6103   15.8138 C   0  0  0  0  0  0  0  0  0  0  0  0
    0.2204   -1.5845   15.0865 C   0  0  0  0  0  0  0  0  0  0  0  0
    1.6042   -1.3599   15.3206 N   0  0  0  0  0  0  0  0  0  0  0  0
    2.5373   -0.4464   14.7592 C   0  0  0  0  0  0  0  0  0  0  0  0
    2.1833    0.3714   13.7220 N   0  0  0  0  0  0  0  0  0  0  0  0
    3.1157    1.2390   13.2179 C   0  0  0  0  0  0  0  0  0  0  0  0
    4.4197    1.2848   13.7036 C   0  0  0  0  0  0  0  0  0  0  0  0
    4.7466    0.4890   14.7613 N   0  0  0  0  0  0  0  0  0  0  0  0
    5.8976    0.3767   15.4867 C   0  0  0  0  0  0  0  0  0  0  0  0
    5.5868   -0.5220   16.5302 C   0  0  0  0  0  0  0  0  0  0  0  0
    4.3755   -1.0422   16.3738 N   0  0  0  0  0  0  0  0  0  0  0  0
    3.8369   -0.3923   15.3263 C   0  0  0  0  0  0  0  0  0  0  0  0
    2.6420    2.1628   12.1182 C   0  0  0  0  0  0  0  0  0  0  0  0
    3.5476    2.6405   11.1603 C   0  0  0  0  0  0  0  0  0  0  0  0
    3.1538    3.4680   10.0985 C   0  0  0  0  0  0  0  0  0  0  0  0
    1.8053    3.8044   10.0318 C   0  0  0  0  0  0  0  0  0  0  0  0
    1.0883    4.5643    9.1320 N   0  0  0  0  0  0  0  0  0  0  0  0
   -0.2025    4.6328    9.4561 N   0  0  0  0  0  0  0  0  0  0  0  0
   -0.3779    3.9489   10.5598 C   0  0  0  0  0  0  0  0  0  0  0  0
    0.8670    3.3654   10.9941 C   0  0  0  0  0  0  0  0  0  0  0  0
    1.2880    2.5471   12.0527 C   0  0  0  0  0  0  0  0  0  0  0  0
   -0.5552   -0.8189   14.1923 C   0  0  0  0  0  0  0  0  0  0  0  0
   -1.9451   -1.0886   14.0616 C   0  0  0  0  0  0  0  0  0  0  0  0
   -2.7540   -0.3570   13.2047 O   0  0  0  0  0  0  0  0  0  0  0  0
   -2.2335    0.6444   12.3522 C   0  0  0  0  0  0  0  0  0  0  0  0
   -5.3357   -3.2522   13.5867 H   0  0  0  0  0  0  0  0  0  0  0  0
   -3.7893   -4.0896   13.5592 H   0  0  0  0  0  0  0  0  0  0  0  0
   -4.0126   -2.5804   12.6439 H   0  0  0  0  0  0  0  0  0  0  0  0
   -2.1927   -3.6625   16.2629 H   0  0  0  0  0  0  0  0  0  0  0  0
    0.1988   -3.2074   16.4977 H   0  0  0  0  0  0  0  0  0  0  0  0
    1.9904   -1.9330   16.0525 H   0  0  0  0  0  0  0  0  0  0  0  0
    5.1817    1.9635   13.3434 H   0  0  0  0  0  0  0  0  0  0  0  0
    6.7861    0.9464   15.2759 H   0  0  0  0  0  0  0  0  0  0  0  0
    6.2273   -0.7901   17.3528 H   0  0  0  0  0  0  0  0  0  0  0  0
    4.5880    2.3444   11.2252 H   0  0  0  0  0  0  0  0  0  0  0  0
    3.8539    3.8134    9.3727 H   0  0  0  0  0  0  0  0  0  0  0  0
    1.4372    5.0378    8.3060 H   0  0  0  0  0  0  0  0  0  0  0  0
   -1.3472    3.8635   11.0272 H   0  0  0  0  0  0  0  0  0  0  0  0
    0.5928    2.2220   12.7999 H   0  0  0  0  0  0  0  0  0  0  0  0
   -0.1077   -0.0333   13.6254 H   0  0  0  0  0  0  0  0  0  0  0  0
   -3.0510    1.0731   11.7700 H   0  0  0  0  0  0  0  0  0  0  0  0
   -1.5105    0.2345   11.6498 H   0  0  0  0  0  0  0  0  0  0  0  0
   -1.7824    1.4497   12.9275 H   0  0  0  0  0  0  0  0  0  0  0  0
  1  2  1  0  0  0  0
  1 30  1  0  0  0  0
  1 31  1  0  0  0  0
  1 32  1  0  0  0  0
  2  3  1  0  0  0  0
  3  4  2  0  0  0  0
  3 27  1  0  0  0  0
  4  5  1  0  0  0  0
  4 33  1  0  0  0  0
  5  6  2  0  0  0  0
  5 34  1  0  0  0  0
  6  7  1  0  0  0  0
  6 26  1  0  0  0  0
  7  8  1  0  0  0  0
  7 35  1  0  0  0  0
  8  9  2  0  0  0  0
  8 16  1  0  0  0  0
  9 10  1  0  0  0  0
 10 11  2  0  0  0  0
 10 17  1  0  0  0  0
 11 12  1  0  0  0  0
 11 36  1  0  0  0  0
 12 13  1  0  0  0  0
 12 16  1  0  0  0  0
 13 14  2  0  0  0  0
 13 37  1  0  0  0  0
 14 15  1  0  0  0  0
 14 38  1  0  0  0  0
 15 16  2  0  0  0  0
 17 18  2  0  0  0  0
 17 25  1  0  0  0  0
 18 19  1  0  0  0  0
 18 39  1  0  0  0  0
 19 20  2  0  0  0  0
 19 40  1  0  0  0  0
 20 21  1  0  0  0  0
 20 24  1  0  0  0  0
 21 22  1  0  0  0  0
 21 41  1  0  0  0  0
 22 23  2  0  0  0  0
 23 24  1  0  0  0  0
 23 42  1  0  0  0  0
 24 25  2  0  0  0  0
 25 43  1  0  0  0  0
 26 27  2  0  0  0  0
 26 44  1  0  0  0  0
 27 28  1  0  0  0  0
 28 29  1  0  0  0  0
 29 45  1  0  0  0  0
 29 46  1  0  0  0  0
 29 47  1  0  0  0  0
M  END
>  <IC50[nM]>
10.4

$$$$
