@<TRIPOS>MOLECULE
CHEMBL3265005
 48 51 0 0 0
SMALL
GASTEIGER
****
Structure written by MMmdl.
@<TRIPOS>ATOM
      1 C          -4.2567   -3.1050   13.5684 C.3     1  LIG1        0.0790
      2 O          -3.8734   -2.3611   14.7148 O.3     1  LIG1       -0.4915
      3 C          -2.5247   -2.1101   14.8166 C.ar    1  LIG1        0.1616
      4 C          -1.7507   -2.8683   15.6828 C.ar    1  LIG1       -0.0146
      5 C          -0.3911   -2.6099   15.8185 C.ar    1  LIG1       -0.0368
      6 C           0.2170   -1.5863   15.0905 C.ar    1  LIG1        0.0362
      7 N           1.6046   -1.3615   15.3286 N.pl3   1  LIG1       -0.2964
      8 C           2.5322   -0.4485   14.7676 C.ar    1  LIG1        0.1669
      9 N           2.1746    0.3813   13.7360 N.ar    1  LIG1       -0.2267
     10 C           3.1152    1.2349   13.2220 C.ar    1  LIG1        0.0897
     11 C           4.4162    1.2784   13.7032 C.ar    1  LIG1        0.0373
     12 N           4.7450    0.4849   14.7598 N.ar    1  LIG1       -0.3018
     13 C           5.8984    0.3795   15.4856 C.ar    1  LIG1        0.0294
     14 C           5.5934   -0.5343   16.5244 C.ar    1  LIG1        0.0465
     15 N           4.3805   -1.0504   16.3702 N.ar    1  LIG1       -0.2330
     16 C           3.8378   -0.3985   15.3258 C.ar    1  LIG1        0.1784
     17 C           2.6545    2.1505   12.1229 C.ar    1  LIG1        0.0026
     18 C           3.5650    2.6332   11.1660 C.ar    1  LIG1       -0.0525
     19 C           3.1279    3.4532   10.1263 C.ar    1  LIG1       -0.0604
     20 C           1.7853    3.8163   10.0263 C.ar    1  LIG1       -0.0496
     21 C           0.8655    3.3670   10.9906 C.ar    1  LIG1        0.0371
     22 C           1.3076    2.5389   12.0352 C.ar    1  LIG1       -0.0404
     23 C          -0.6125    3.7616   10.9140 C.2     1  LIG1        0.2416
     24 O          -1.4124    3.3703   11.7502 O.2     1  LIG1       -0.2704
     25 N          -0.9623    4.5440    9.8958 N.am    1  LIG1       -0.3253
     26 C          -0.5525   -0.8154   14.1926 C.ar    1  LIG1        0.0049
     27 C          -1.9431   -1.0889   14.0634 C.ar    1  LIG1        0.1632
     28 O          -2.7491   -0.3514   13.2105 O.3     1  LIG1       -0.4914
     29 C          -2.2119    0.5324   12.2516 C.3     1  LIG1        0.0790
     30 H          -5.3371   -3.2473   13.5828 H       1  LIG1        0.0660
     31 H          -3.7923   -4.0918   13.5617 H       1  LIG1        0.0660
     32 H          -4.0053   -2.5854   12.6423 H       1  LIG1        0.0660
     33 H          -2.2045   -3.6577   16.2649 H       1  LIG1        0.0656
     34 H           0.1939   -3.2023   16.5060 H       1  LIG1        0.0637
     35 H           1.9934   -1.9429   16.0579 H       1  LIG1        0.1537
     36 H           5.1774    1.9554   13.3408 H       1  LIG1        0.0835
     37 H           6.7817    0.9624   15.2771 H       1  LIG1        0.0829
     38 H           6.2343   -0.8101   17.3474 H       1  LIG1        0.0845
     39 H           4.6048    2.3502   11.2176 H       1  LIG1        0.0624
     40 H           3.8359    3.8027    9.3872 H       1  LIG1        0.0618
     41 H           1.4656    4.4411    9.2087 H       1  LIG1        0.0625
     42 H           0.6085    2.2013   12.7854 H       1  LIG1        0.0632
     43 H          -1.9282    4.8274    9.7978 H       1  LIG1        0.1453
     44 H          -0.2850    4.8642    9.2301 H       1  LIG1        0.1453
     45 H          -0.1105   -0.0248   13.6275 H       1  LIG1        0.0674
     46 H          -3.0285    0.9892   11.6884 H       1  LIG1        0.0660
     47 H          -1.5629    0.0226   11.5419 H       1  LIG1        0.0660
     48 H          -1.6668    1.3176   12.7602 H       1  LIG1        0.0660
@<TRIPOS>BOND
     1     1     2    1
     2     1    30    1
     3     1    31    1
     4     1    32    1
     5     2     3    1
     6     3     4   ar
     7     3    27   ar
     8     4     5   ar
     9     4    33    1
    10     5     6   ar
    11     5    34    1
    12     6     7    1
    13     6    26   ar
    14     7     8    1
    15     7    35    1
    16     8     9   ar
    17     8    16   ar
    18     9    10   ar
    19    10    11   ar
    20    10    17    1
    21    11    12   ar
    22    11    36    1
    23    12    13   ar
    24    12    16   ar
    25    13    14   ar
    26    13    37    1
    27    14    15   ar
    28    14    38    1
    29    15    16   ar
    30    17    18   ar
    31    17    22   ar
    32    18    19   ar
    33    18    39    1
    34    19    20   ar
    35    19    40    1
    36    20    21   ar
    37    20    41    1
    38    21    22   ar
    39    21    23    1
    40    22    42    1
    41    23    24    2
    42    23    25   am
    43    25    43    1
    44    25    44    1
    45    26    27   ar
    46    26    45    1
    47    27    28    1
    48    28    29    1
    49    29    46    1
    50    29    47    1
    51    29    48    1
