CHEMBL3265026
 OpenBabel02152110423D
Structure written by MMmdl.
 51 55  0  0  1  0  0  0  0  0999 V2000
   -4.2568   -3.1047   13.5691 C   0  0  0  0  0  0  0  0  0  0  0  0
   -3.8735   -2.3611   14.7159 O   0  0  0  0  0  0  0  0  0  0  0  0
   -2.5255   -2.1111   14.8166 C   0  0  0  0  0  0  0  0  0  0  0  0
   -1.7467   -2.8699   15.6815 C   0  0  0  0  0  0  0  0  0  0  0  0
   -0.3906   -2.6103   15.8137 C   0  0  0  0  0  0  0  0  0  0  0  0
    0.2208   -1.5857   15.0868 C   0  0  0  0  0  0  0  0  0  0  0  0
    1.6032   -1.3595   15.3238 N   0  0  0  0  0  0  0  0  0  0  0  0
    2.5348   -0.4457   14.7641 C   0  0  0  0  0  0  0  0  0  0  0  0
    2.1779    0.3778   13.7292 N   0  0  0  0  0  0  0  0  0  0  0  0
    3.1185    1.2359   13.2212 C   0  0  0  0  0  0  0  0  0  0  0  0
    4.4181    1.2809   13.7047 C   0  0  0  0  0  0  0  0  0  0  0  0
    4.7461    0.4870   14.7618 N   0  0  0  0  0  0  0  0  0  0  0  0
    5.8981    0.3788   15.4858 C   0  0  0  0  0  0  0  0  0  0  0  0
    5.5910   -0.5280   16.5270 C   0  0  0  0  0  0  0  0  0  0  0  0
    4.3781   -1.0445   16.3723 N   0  0  0  0  0  0  0  0  0  0  0  0
    3.8363   -0.3925   15.3256 C   0  0  0  0  0  0  0  0  0  0  0  0
    2.6611    2.1501   12.1240 C   0  0  0  0  0  0  0  0  0  0  0  0
    3.5712    2.6353   11.1629 C   0  0  0  0  0  0  0  0  0  0  0  0
    3.1347    3.4612   10.1202 C   0  0  0  0  0  0  0  0  0  0  0  0
    1.7926    3.8149   10.0376 C   0  0  0  0  0  0  0  0  0  0  0  0
    1.4009    4.6318    8.9894 O   0  0  0  0  0  0  0  0  0  0  0  0
    0.0085    4.5902    8.6762 C   0  0  0  0  0  0  0  0  0  0  0  0
   -0.8186    4.7372    9.9574 C   0  0  0  0  0  0  0  0  0  0  0  0
   -0.4761    3.7058   10.9290 N   0  0  0  0  0  0  0  0  0  0  0  0
    0.8817    3.3521   10.9992 C   0  0  0  0  0  0  0  0  0  0  0  0
    1.3168    2.5380   12.0350 C   0  0  0  0  0  0  0  0  0  0  0  0
   -0.5547   -0.8194   14.1898 C   0  0  0  0  0  0  0  0  0  0  0  0
   -1.9431   -1.0889   14.0597 C   0  0  0  0  0  0  0  0  0  0  0  0
   -2.7507   -0.3535   13.2059 O   0  0  0  0  0  0  0  0  0  0  0  0
   -2.2107    0.5014   12.2156 C   0  0  0  0  0  0  0  0  0  0  0  0
   -5.3360   -3.2526   13.5865 H   0  0  0  0  0  0  0  0  0  0  0  0
   -3.7882   -4.0895   13.5586 H   0  0  0  0  0  0  0  0  0  0  0  0
   -4.0119   -2.5815   12.6433 H   0  0  0  0  0  0  0  0  0  0  0  0
   -2.1972   -3.6612   16.2628 H   0  0  0  0  0  0  0  0  0  0  0  0
    0.1988   -3.2050   16.4994 H   0  0  0  0  0  0  0  0  0  0  0  0
    1.9921   -1.9379   16.0547 H   0  0  0  0  0  0  0  0  0  0  0  0
    5.1792    1.9587   13.3427 H   0  0  0  0  0  0  0  0  0  0  0  0
    6.7836    0.9552   15.2767 H   0  0  0  0  0  0  0  0  0  0  0  0
    6.2332   -0.8019   17.3497 H   0  0  0  0  0  0  0  0  0  0  0  0
    4.6084    2.3515   11.2173 H   0  0  0  0  0  0  0  0  0  0  0  0
    3.8361    3.8129    9.3818 H   0  0  0  0  0  0  0  0  0  0  0  0
   -0.2487    3.6561    8.1758 H   0  0  0  0  0  0  0  0  0  0  0  0
   -0.2439    5.4020    7.9931 H   0  0  0  0  0  0  0  0  0  0  0  0
   -1.8882    4.6243    9.7487 H   0  0  0  0  0  0  0  0  0  0  0  0
   -0.7133    5.7290   10.3994 H   0  0  0  0  0  0  0  0  0  0  0  0
   -1.1280    3.4995   11.6583 H   0  0  0  0  0  0  0  0  0  0  0  0
    0.6104    2.2087   12.7810 H   0  0  0  0  0  0  0  0  0  0  0  0
   -0.1096   -0.0303   13.6230 H   0  0  0  0  0  0  0  0  0  0  0  0
   -3.0323    0.9527   11.6561 H   0  0  0  0  0  0  0  0  0  0  0  0
   -1.5950   -0.0476   11.5044 H   0  0  0  0  0  0  0  0  0  0  0  0
   -1.6381    1.3072   12.6663 H   0  0  0  0  0  0  0  0  0  0  0  0
  1  2  1  0  0  0  0
  1 31  1  0  0  0  0
  1 32  1  0  0  0  0
  1 33  1  0  0  0  0
  2  3  1  0  0  0  0
  3  4  2  0  0  0  0
  3 28  1  0  0  0  0
  4  5  1  0  0  0  0
  4 34  1  0  0  0  0
  5  6  2  0  0  0  0
  5 35  1  0  0  0  0
  6  7  1  0  0  0  0
  6 27  1  0  0  0  0
  7  8  1  0  0  0  0
  7 36  1  0  0  0  0
  8  9  2  0  0  0  0
  8 16  1  0  0  0  0
  9 10  1  0  0  0  0
 10 11  2  0  0  0  0
 10 17  1  0  0  0  0
 11 12  1  0  0  0  0
 11 37  1  0  0  0  0
 12 13  1  0  0  0  0
 12 16  1  0  0  0  0
 13 14  2  0  0  0  0
 13 38  1  0  0  0  0
 14 15  1  0  0  0  0
 14 39  1  0  0  0  0
 15 16  2  0  0  0  0
 17 18  2  0  0  0  0
 17 26  1  0  0  0  0
 18 19  1  0  0  0  0
 18 40  1  0  0  0  0
 19 20  2  0  0  0  0
 19 41  1  0  0  0  0
 20 21  1  0  0  0  0
 20 25  1  0  0  0  0
 21 22  1  0  0  0  0
 22 23  1  0  0  0  0
 22 42  1  0  0  0  0
 22 43  1  0  0  0  0
 23 24  1  0  0  0  0
 23 44  1  0  0  0  0
 23 45  1  0  0  0  0
 24 25  1  0  0  0  0
 24 46  1  0  0  0  0
 25 26  2  0  0  0  0
 26 47  1  0  0  0  0
 27 28  2  0  0  0  0
 27 48  1  0  0  0  0
 28 29  1  0  0  0  0
 29 30  1  0  0  0  0
 30 49  1  0  0  0  0
 30 50  1  0  0  0  0
 30 51  1  0  0  0  0
M  END
>  <IC50[nM]>
4.7

$$$$
