CHEMBL3265036
 OpenBabel02152110423D
Structure written by MMmdl.
 55 60  0  0  1  0  0  0  0  0999 V2000
   -4.7688   -2.7849   12.3431 C   0  0  0  0  0  0  0  0  0  0  0  0
   -5.3846   -4.1377   12.6456 C   0  0  0  0  0  0  0  0  0  0  0  0
   -4.4594   -4.9732   13.3425 O   0  0  0  0  0  0  0  0  0  0  0  0
   -4.3771   -4.8619   14.7737 C   0  0  0  0  0  0  0  0  0  0  0  0
   -4.4823   -3.4746   15.4482 C   0  0  0  0  0  0  0  0  0  0  0  0
   -3.8932   -2.3265   14.7696 N   0  0  0  0  0  0  0  0  0  0  0  0
   -4.5743   -1.9363   13.5651 C   0  0  0  0  0  0  0  0  0  0  0  0
   -2.4838   -2.1095   14.8521 C   0  0  0  0  0  0  0  0  0  0  0  0
   -1.6944   -2.8761   15.7249 C   0  0  0  0  0  0  0  0  0  0  0  0
   -0.3386   -2.6335   15.8473 C   0  0  0  0  0  0  0  0  0  0  0  0
    0.2634   -1.6168   15.1140 C   0  0  0  0  0  0  0  0  0  0  0  0
    1.6446   -1.3934   15.3516 N   0  0  0  0  0  0  0  0  0  0  0  0
    2.5467   -0.4494   14.7774 C   0  0  0  0  0  0  0  0  0  0  0  0
    2.1622    0.3813   13.7703 N   0  0  0  0  0  0  0  0  0  0  0  0
    3.0905    1.2361   13.2368 C   0  0  0  0  0  0  0  0  0  0  0  0
    4.3967    1.2828   13.6973 C   0  0  0  0  0  0  0  0  0  0  0  0
    4.7322    0.4976   14.7555 N   0  0  0  0  0  0  0  0  0  0  0  0
    5.8998    0.3887   15.4576 C   0  0  0  0  0  0  0  0  0  0  0  0
    5.6143   -0.5477   16.4779 C   0  0  0  0  0  0  0  0  0  0  0  0
    4.4157   -1.0782   16.3290 N   0  0  0  0  0  0  0  0  0  0  0  0
    3.8521   -0.4000   15.3224 C   0  0  0  0  0  0  0  0  0  0  0  0
    2.6115    2.1334   12.1178 C   0  0  0  0  0  0  0  0  0  0  0  0
    3.5406    2.6292   11.1800 C   0  0  0  0  0  0  0  0  0  0  0  0
    3.1477    3.4565   10.1243 C   0  0  0  0  0  0  0  0  0  0  0  0
    1.8039    3.8086   10.0214 C   0  0  0  0  0  0  0  0  0  0  0  0
    1.0010    4.6077    9.1343 C   0  0  0  0  0  0  0  0  0  0  0  0
   -0.2411    4.6153    9.5215 N   0  0  0  0  0  0  0  0  0  0  0  0
   -0.3421    3.8665   10.6189 N   0  0  0  0  0  0  0  0  0  0  0  0
    0.8809    3.3298   10.9772 C   0  0  0  0  0  0  0  0  0  0  0  0
    1.2478    2.4836   12.0372 C   0  0  0  0  0  0  0  0  0  0  0  0
   -0.4905   -0.8517   14.2206 C   0  0  0  0  0  0  0  0  0  0  0  0
   -1.8442   -1.1028   14.0951 C   0  0  0  0  0  0  0  0  0  0  0  0
   -5.4655   -2.2112   11.7306 H   0  0  0  0  0  0  0  0  0  0  0  0
   -3.8535   -2.8315   11.7616 H   0  0  0  0  0  0  0  0  0  0  0  0
   -5.6106   -4.5931   11.6807 H   0  0  0  0  0  0  0  0  0  0  0  0
   -6.3420   -4.0330   13.1669 H   0  0  0  0  0  0  0  0  0  0  0  0
   -3.4412   -5.3258   15.0901 H   0  0  0  0  0  0  0  0  0  0  0  0
   -5.1781   -5.4795   15.1894 H   0  0  0  0  0  0  0  0  0  0  0  0
   -4.1424   -3.5352   16.4845 H   0  0  0  0  0  0  0  0  0  0  0  0
   -5.5391   -3.2263   15.6236 H   0  0  0  0  0  0  0  0  0  0  0  0
   -4.1926   -0.9915   13.1890 H   0  0  0  0  0  0  0  0  0  0  0  0
   -5.5588   -1.6067   13.9319 H   0  0  0  0  0  0  0  0  0  0  0  0
   -2.1452   -3.6541   16.3212 H   0  0  0  0  0  0  0  0  0  0  0  0
    0.2418   -3.2285   16.5309 H   0  0  0  0  0  0  0  0  0  0  0  0
    2.0461   -1.9727   16.0611 H   0  0  0  0  0  0  0  0  0  0  0  0
    5.1489    1.9535   13.3193 H   0  0  0  0  0  0  0  0  0  0  0  0
    6.7638    0.9944   15.2597 H   0  0  0  0  0  0  0  0  0  0  0  0
    6.2642   -0.8294   17.2788 H   0  0  0  0  0  0  0  0  0  0  0  0
    4.5777    2.3521   11.2618 H   0  0  0  0  0  0  0  0  0  0  0  0
    3.8741    3.8108    9.4106 H   0  0  0  0  0  0  0  0  0  0  0  0
    1.3139    5.1535    8.2666 H   0  0  0  0  0  0  0  0  0  0  0  0
   -1.2254    3.7567   11.0774 H   0  0  0  0  0  0  0  0  0  0  0  0
    0.5353    2.1303   12.7513 H   0  0  0  0  0  0  0  0  0  0  0  0
   -0.0514   -0.0690   13.6498 H   0  0  0  0  0  0  0  0  0  0  0  0
   -2.4203   -0.4773   13.4210 H   0  0  0  0  0  0  0  0  0  0  0  0
  1  2  1  0  0  0  0
  1  7  1  0  0  0  0
  1 33  1  0  0  0  0
  1 34  1  0  0  0  0
  2  3  1  0  0  0  0
  2 35  1  0  0  0  0
  2 36  1  0  0  0  0
  3  4  1  0  0  0  0
  4  5  1  0  0  0  0
  4 37  1  0  0  0  0
  4 38  1  0  0  0  0
  5  6  1  0  0  0  0
  5 39  1  0  0  0  0
  5 40  1  0  0  0  0
  6  7  1  0  0  0  0
  6  8  1  0  0  0  0
  7 41  1  0  0  0  0
  7 42  1  0  0  0  0
  8  9  2  0  0  0  0
  8 32  1  0  0  0  0
  9 10  1  0  0  0  0
  9 43  1  0  0  0  0
 10 11  2  0  0  0  0
 10 44  1  0  0  0  0
 11 12  1  0  0  0  0
 11 31  1  0  0  0  0
 12 13  1  0  0  0  0
 12 45  1  0  0  0  0
 13 14  2  0  0  0  0
 13 21  1  0  0  0  0
 14 15  1  0  0  0  0
 15 16  2  0  0  0  0
 15 22  1  0  0  0  0
 16 17  1  0  0  0  0
 16 46  1  0  0  0  0
 17 18  1  0  0  0  0
 17 21  1  0  0  0  0
 18 19  2  0  0  0  0
 18 47  1  0  0  0  0
 19 20  1  0  0  0  0
 19 48  1  0  0  0  0
 20 21  2  0  0  0  0
 22 23  2  0  0  0  0
 22 30  1  0  0  0  0
 23 24  1  0  0  0  0
 23 49  1  0  0  0  0
 24 25  2  0  0  0  0
 24 50  1  0  0  0  0
 25 26  1  0  0  0  0
 25 29  1  0  0  0  0
 26 27  2  0  0  0  0
 26 51  1  0  0  0  0
 27 28  1  0  0  0  0
 28 29  1  0  0  0  0
 28 52  1  0  0  0  0
 29 30  2  0  0  0  0
 30 53  1  0  0  0  0
 31 32  2  0  0  0  0
 31 54  1  0  0  0  0
 32 55  1  0  0  0  0
M  END
>  <IC50[nM]>
23.1

$$$$
