@<TRIPOS>MOLECULE
CHEMBL3265031
 58 63 0 0 0
SMALL
GASTEIGER
****
Structure written by MMmdl.
@<TRIPOS>ATOM
      1 C          -6.8350   -5.5126   14.3646 C.3     1  LIG1       -0.0360
      2 C          -6.2469   -4.1256   14.5196 C.3     1  LIG1        0.0662
      3 O          -7.2986   -3.1815   14.6326 O.3     1  LIG1       -0.3887
      4 C          -5.3943   -4.0373   15.7957 C.3     1  LIG1       -0.0084
      5 C          -4.6708   -2.7036   15.9246 C.3     1  LIG1        0.0148
      6 N          -3.8604   -2.3511   14.7445 N.pl3   1  LIG1       -0.3297
      7 C          -4.6320   -2.3959   13.4920 C.3     1  LIG1        0.0148
      8 C          -5.3661   -3.7377   13.3163 C.3     1  LIG1       -0.0084
      9 C          -2.5090   -2.1078   14.8185 C.ar    1  LIG1        0.0298
     10 C          -1.9132   -1.0937   14.0521 C.ar    1  LIG1       -0.0389
     11 C          -0.5452   -0.8202   14.1949 C.ar    1  LIG1       -0.0388
     12 C           0.2267   -1.5891   15.0857 C.ar    1  LIG1        0.0326
     13 N           1.6093   -1.3706   15.3172 N.pl3   1  LIG1       -0.2965
     14 C           2.5356   -0.4465   14.7610 C.ar    1  LIG1        0.1669
     15 N           2.1744    0.3801   13.7331 N.ar    1  LIG1       -0.2267
     16 C           3.1091    1.2393   13.2182 C.ar    1  LIG1        0.0897
     17 C           4.4162    1.2819   13.6993 C.ar    1  LIG1        0.0373
     18 N           4.7443    0.4889   14.7568 N.ar    1  LIG1       -0.3018
     19 C           5.8980    0.3793   15.4854 C.ar    1  LIG1        0.0294
     20 C           5.5914   -0.5292   16.5255 C.ar    1  LIG1        0.0465
     21 N           4.3788   -1.0451   16.3697 N.ar    1  LIG1       -0.2330
     22 C           3.8374   -0.3956   15.3255 C.ar    1  LIG1        0.1784
     23 C           2.6339    2.1607   12.1207 C.ar    1  LIG1        0.0039
     24 C           3.5443    2.6413   11.1620 C.ar    1  LIG1       -0.0518
     25 C           3.1470    3.4630   10.1086 C.ar    1  LIG1       -0.0505
     26 C           1.8016    3.8175   10.0163 C.ar    1  LIG1        0.0195
     27 C           0.9929    4.5961    9.1183 C.ar    1  LIG1        0.0569
     28 N          -0.2479    4.6060    9.5144 N.ar    1  LIG1       -0.1812
     29 N          -0.3355    3.8922   10.6289 N.ar    1  LIG1       -0.2769
     30 C           0.8848    3.3596   10.9956 C.ar    1  LIG1        0.0663
     31 C           1.2708    2.5377   12.0624 C.ar    1  LIG1       -0.0271
     32 C          -0.3834   -2.6137   15.8106 C.ar    1  LIG1       -0.0388
     33 C          -1.7318   -2.8604   15.6854 C.ar    1  LIG1       -0.0389
     34 H          -6.0467   -6.2631   14.3371 H       1  LIG1        0.0257
     35 H          -7.4067   -5.5754   13.4421 H       1  LIG1        0.0257
     36 H          -7.4975   -5.7395   15.1969 H       1  LIG1        0.0257
     37 H          -7.8476   -3.4517   15.3749 H       1  LIG1        0.2101
     38 H          -6.0063   -4.2224   16.6815 H       1  LIG1        0.0308
     39 H          -4.6544   -4.8417   15.8115 H       1  LIG1        0.0308
     40 H          -4.0494   -2.7060   16.8283 H       1  LIG1        0.0464
     41 H          -5.3818   -1.8934   16.0953 H       1  LIG1        0.0464
     42 H          -3.9484   -2.2562   12.6532 H       1  LIG1        0.0464
     43 H          -5.3571   -1.5966   13.4338 H       1  LIG1        0.0464
     44 H          -5.9794   -3.7294   12.4113 H       1  LIG1        0.0308
     45 H          -4.6376   -4.5315   13.1300 H       1  LIG1        0.0308
     46 H          -2.5174   -0.4949   13.3813 H       1  LIG1        0.0637
     47 H          -0.1094   -0.0194   13.6338 H       1  LIG1        0.0637
     48 H           2.0065   -1.9728   16.0216 H       1  LIG1        0.1537
     49 H           5.1781    1.9583   13.3366 H       1  LIG1        0.0835
     50 H           6.7839    0.9561   15.2754 H       1  LIG1        0.0829
     51 H           6.2312   -0.8046   17.3482 H       1  LIG1        0.0845
     52 H           4.5843    2.3478   11.2246 H       1  LIG1        0.0624
     53 H           3.8596    3.8053    9.3796 H       1  LIG1        0.0625
     54 H           1.3020    5.1188    8.2316 H       1  LIG1        0.0854
     55 H          -1.2247    3.7893   11.0947 H       1  LIG1        0.1889
     56 H           0.5687    2.2070   12.8051 H       1  LIG1        0.0645
     57 H           0.2004   -3.2162   16.4903 H       1  LIG1        0.0637
     58 H          -2.1848   -3.6574   16.2613 H       1  LIG1        0.0637
@<TRIPOS>BOND
     1     1     2    1
     2     1    34    1
     3     1    35    1
     4     1    36    1
     5     2     3    1
     6     2     4    1
     7     2     8    1
     8     3    37    1
     9     4     5    1
    10     4    38    1
    11     4    39    1
    12     5     6    1
    13     5    40    1
    14     5    41    1
    15     6     7    1
    16     6     9    1
    17     7     8    1
    18     7    42    1
    19     7    43    1
    20     8    44    1
    21     8    45    1
    22     9    10   ar
    23     9    33   ar
    24    10    11   ar
    25    10    46    1
    26    11    12   ar
    27    11    47    1
    28    12    13    1
    29    12    32   ar
    30    13    14    1
    31    13    48    1
    32    14    15   ar
    33    14    22   ar
    34    15    16   ar
    35    16    17   ar
    36    16    23    1
    37    17    18   ar
    38    17    49    1
    39    18    19   ar
    40    18    22   ar
    41    19    20   ar
    42    19    50    1
    43    20    21   ar
    44    20    51    1
    45    21    22   ar
    46    23    24   ar
    47    23    31   ar
    48    24    25   ar
    49    24    52    1
    50    25    26   ar
    51    25    53    1
    52    26    27   ar
    53    26    30   ar
    54    27    28   ar
    55    27    54    1
    56    28    29   ar
    57    29    30   ar
    58    29    55    1
    59    30    31   ar
    60    31    56    1
    61    32    33   ar
    62    32    57    1
    63    33    58    1
