CHEMBL3265030_n
 OpenBabel02152110423D
Structure written by MMmdl.
 52 57  0  0  1  0  0  0  0  0999 V2000
   -6.0443   -4.4602   16.2962 C   0  0  0  0  0  0  0  0  0  0  0  0
   -5.6240   -3.4001   15.2728 C   0  0  0  0  0  0  0  0  0  0  0  0
   -6.7329   -2.9884   14.5080 O   0  0  0  0  0  0  0  0  0  0  0  0
   -4.7833   -2.2666   15.8350 C   0  0  0  0  0  0  0  0  0  0  0  0
   -3.8370   -2.3937   14.7064 N   0  0  0  0  0  0  0  0  0  0  0  0
   -4.3873   -3.7457   14.4627 C   0  0  0  0  0  0  0  0  0  0  0  0
   -2.4739   -2.0989   14.7890 C   0  0  0  0  0  0  0  0  0  0  0  0
   -1.8935   -1.0737   14.0433 C   0  0  0  0  0  0  0  0  0  0  0  0
   -0.5352   -0.8073   14.1963 C   0  0  0  0  0  0  0  0  0  0  0  0
    0.2332   -1.5617   15.0991 C   0  0  0  0  0  0  0  0  0  0  0  0
    1.5948   -1.3216   15.3436 N   0  0  0  0  0  0  0  0  0  0  0  0
    2.5323   -0.4320   14.7835 C   0  0  0  0  0  0  0  0  0  0  0  0
    2.1832    0.3856   13.7527 N   0  0  0  0  0  0  0  0  0  0  0  0
    3.0997    1.2392   13.2138 C   0  0  0  0  0  0  0  0  0  0  0  0
    4.4085    1.2886   13.6971 C   0  0  0  0  0  0  0  0  0  0  0  0
    4.7393    0.4966   14.7557 N   0  0  0  0  0  0  0  0  0  0  0  0
    5.8912    0.3843   15.4874 C   0  0  0  0  0  0  0  0  0  0  0  0
    5.6000   -0.5403   16.4969 C   0  0  0  0  0  0  0  0  0  0  0  0
    4.3900   -1.0499   16.3863 N   0  0  0  0  0  0  0  0  0  0  0  0
    3.8285   -0.3910   15.3363 C   0  0  0  0  0  0  0  0  0  0  0  0
    2.6272    2.1508   12.1213 C   0  0  0  0  0  0  0  0  0  0  0  0
    3.5370    2.6346   11.1631 C   0  0  0  0  0  0  0  0  0  0  0  0
    3.1492    3.4622   10.1085 C   0  0  0  0  0  0  0  0  0  0  0  0
    1.8011    3.8208   10.0156 C   0  0  0  0  0  0  0  0  0  0  0  0
    0.9990    4.5979    9.1271 C   0  0  0  0  0  0  0  0  0  0  0  0
   -0.2497    4.6170    9.5128 N   0  0  0  0  0  0  0  0  0  0  0  0
   -0.3315    3.8838   10.6343 N   0  0  0  0  0  0  0  0  0  0  0  0
    0.8874    3.3527   10.9946 C   0  0  0  0  0  0  0  0  0  0  0  0
    1.2729    2.5247   12.0514 C   0  0  0  0  0  0  0  0  0  0  0  0
   -0.3672   -2.5916   15.8262 C   0  0  0  0  0  0  0  0  0  0  0  0
   -1.7168   -2.8552   15.6739 C   0  0  0  0  0  0  0  0  0  0  0  0
   -5.2050   -4.7984   16.9035 H   0  0  0  0  0  0  0  0  0  0  0  0
   -6.8054   -4.0661   16.9698 H   0  0  0  0  0  0  0  0  0  0  0  0
   -6.4675   -5.3321   15.7974 H   0  0  0  0  0  0  0  0  0  0  0  0
   -6.4046   -2.3323   13.8881 H   0  0  0  0  0  0  0  0  0  0  0  0
   -4.3284   -2.4863   16.8029 H   0  0  0  0  0  0  0  0  0  0  0  0
   -5.2892   -1.3024   15.8976 H   0  0  0  0  0  0  0  0  0  0  0  0
   -4.5733   -3.9761   13.4129 H   0  0  0  0  0  0  0  0  0  0  0  0
   -3.7850   -4.5482   14.8924 H   0  0  0  0  0  0  0  0  0  0  0  0
   -2.4933   -0.4925   13.3604 H   0  0  0  0  0  0  0  0  0  0  0  0
   -0.1177   -0.0073   13.6132 H   0  0  0  0  0  0  0  0  0  0  0  0
    2.0095   -1.8739   16.0815 H   0  0  0  0  0  0  0  0  0  0  0  0
    5.1692    1.9645   13.3454 H   0  0  0  0  0  0  0  0  0  0  0  0
    6.7768    0.9622   15.2769 H   0  0  0  0  0  0  0  0  0  0  0  0
    6.2732   -0.8674   17.2818 H   0  0  0  0  0  0  0  0  0  0  0  0
    4.5724    2.3319   11.2116 H   0  0  0  0  0  0  0  0  0  0  0  0
    3.8628    3.8049    9.3741 H   0  0  0  0  0  0  0  0  0  0  0  0
    1.3157    5.1254    8.2407 H   0  0  0  0  0  0  0  0  0  0  0  0
   -1.2162    3.7634   11.1025 H   0  0  0  0  0  0  0  0  0  0  0  0
    0.5632    2.1669   12.7820 H   0  0  0  0  0  0  0  0  0  0  0  0
    0.2126   -3.1777   16.5228 H   0  0  0  0  0  0  0  0  0  0  0  0
   -2.1693   -3.6422   16.2570 H   0  0  0  0  0  0  0  0  0  0  0  0
  1  2  1  0  0  0  0
  1 32  1  0  0  0  0
  1 33  1  0  0  0  0
  1 34  1  0  0  0  0
  2  3  1  0  0  0  0
  2  4  1  0  0  0  0
  2  6  1  0  0  0  0
  3 35  1  0  0  0  0
  4  5  1  0  0  0  0
  4 36  1  0  0  0  0
  4 37  1  0  0  0  0
  5  6  1  0  0  0  0
  5  7  1  0  0  0  0
  6 38  1  0  0  0  0
  6 39  1  0  0  0  0
  7  8  2  0  0  0  0
  7 31  1  0  0  0  0
  8  9  1  0  0  0  0
  8 40  1  0  0  0  0
  9 10  2  0  0  0  0
  9 41  1  0  0  0  0
 10 11  1  0  0  0  0
 10 30  1  0  0  0  0
 11 12  1  0  0  0  0
 11 42  1  0  0  0  0
 12 13  2  0  0  0  0
 12 20  1  0  0  0  0
 13 14  1  0  0  0  0
 14 15  2  0  0  0  0
 14 21  1  0  0  0  0
 15 16  1  0  0  0  0
 15 43  1  0  0  0  0
 16 17  1  0  0  0  0
 16 20  1  0  0  0  0
 17 18  2  0  0  0  0
 17 44  1  0  0  0  0
 18 19  1  0  0  0  0
 18 45  1  0  0  0  0
 19 20  2  0  0  0  0
 21 22  2  0  0  0  0
 21 29  1  0  0  0  0
 22 23  1  0  0  0  0
 22 46  1  0  0  0  0
 23 24  2  0  0  0  0
 23 47  1  0  0  0  0
 24 25  1  0  0  0  0
 24 28  1  0  0  0  0
 25 26  2  0  0  0  0
 25 48  1  0  0  0  0
 26 27  1  0  0  0  0
 27 28  1  0  0  0  0
 27 49  1  0  0  0  0
 28 29  2  0  0  0  0
 29 50  1  0  0  0  0
 30 31  2  0  0  0  0
 30 51  1  0  0  0  0
 31 52  1  0  0  0  0
M  END
>  <IC50[nM]>
3.9

$$$$
