CHEMBL3265015
 OpenBabel02152110423D
Structure written by MMmdl.
 51 54  0  0  1  0  0  0  0  0999 V2000
   -4.2658   -3.1175   13.5713 C   0  0  0  0  0  0  0  0  0  0  0  0
   -3.8897   -2.4164   14.7436 O   0  0  0  0  0  0  0  0  0  0  0  0
   -2.5439   -2.1718   14.8418 C   0  0  0  0  0  0  0  0  0  0  0  0
   -1.7693   -2.9126   15.7244 C   0  0  0  0  0  0  0  0  0  0  0  0
   -0.4086   -2.6509   15.8610 C   0  0  0  0  0  0  0  0  0  0  0  0
    0.2048   -1.6479   15.1096 C   0  0  0  0  0  0  0  0  0  0  0  0
    1.6017   -1.4006   15.3489 N   0  0  0  0  0  0  0  0  0  0  0  0
    2.5425   -0.4814   14.7772 C   0  0  0  0  0  0  0  0  0  0  0  0
    2.1966    0.3306   13.7372 N   0  0  0  0  0  0  0  0  0  0  0  0
    3.1151    1.2253   13.2359 C   0  0  0  0  0  0  0  0  0  0  0  0
    4.4125    1.2753   13.7158 C   0  0  0  0  0  0  0  0  0  0  0  0
    4.7468    0.4823   14.7726 N   0  0  0  0  0  0  0  0  0  0  0  0
    5.9017    0.3875   15.4968 C   0  0  0  0  0  0  0  0  0  0  0  0
    5.6113   -0.5378   16.5263 C   0  0  0  0  0  0  0  0  0  0  0  0
    4.3968   -1.0589   16.3854 N   0  0  0  0  0  0  0  0  0  0  0  0
    3.8461   -0.4133   15.3411 C   0  0  0  0  0  0  0  0  0  0  0  0
    2.6468    2.1713   12.1254 C   0  0  0  0  0  0  0  0  0  0  0  0
    1.2968    2.6023   12.0851 C   0  0  0  0  0  0  0  0  0  0  0  0
    0.8699    3.4876   11.0892 C   0  0  0  0  0  0  0  0  0  0  0  0
    1.7721    3.9706   10.1365 C   0  0  0  0  0  0  0  0  0  0  0  0
    3.0808    3.5379   10.1569 C   0  0  0  0  0  0  0  0  0  0  0  0
    3.5135    2.6334   11.0944 C   0  0  0  0  0  0  0  0  0  0  0  0
    4.9035    2.1468   10.9601 C   0  0  0  0  0  0  0  0  0  0  0  0
    1.3475    4.9212    9.0657 C   0  0  0  0  0  0  0  0  0  0  0  0
    0.1679    5.0957    8.8335 O   0  0  0  0  0  0  0  0  0  0  0  0
    2.3260    5.5415    8.3940 N   0  0  0  0  0  0  0  0  0  0  0  0
   -0.5697   -0.9333   14.1871 C   0  0  0  0  0  0  0  0  0  0  0  0
   -1.9604   -1.1834   14.0595 C   0  0  0  0  0  0  0  0  0  0  0  0
   -2.7686   -0.4755   13.1689 O   0  0  0  0  0  0  0  0  0  0  0  0
   -2.2961    0.5699   12.3655 C   0  0  0  0  0  0  0  0  0  0  0  0
   -5.3441   -3.2619   13.5806 H   0  0  0  0  0  0  0  0  0  0  0  0
   -3.7878   -4.0957   13.5514 H   0  0  0  0  0  0  0  0  0  0  0  0
   -4.0115   -2.5871   12.6508 H   0  0  0  0  0  0  0  0  0  0  0  0
   -2.2259   -3.6928   16.3199 H   0  0  0  0  0  0  0  0  0  0  0  0
    0.1739   -3.2287   16.5652 H   0  0  0  0  0  0  0  0  0  0  0  0
    1.9820   -1.9375   16.1133 H   0  0  0  0  0  0  0  0  0  0  0  0
    5.1700    1.9545   13.3487 H   0  0  0  0  0  0  0  0  0  0  0  0
    6.7839    0.9785   15.2881 H   0  0  0  0  0  0  0  0  0  0  0  0
    6.2593   -0.8148   17.3315 H   0  0  0  0  0  0  0  0  0  0  0  0
    0.5957    2.2582   12.8300 H   0  0  0  0  0  0  0  0  0  0  0  0
   -0.1662    3.8085   11.0690 H   0  0  0  0  0  0  0  0  0  0  0  0
    3.7700    3.8907    9.4150 H   0  0  0  0  0  0  0  0  0  0  0  0
    5.2620    2.3460   11.8705 H   0  0  0  0  0  0  0  0  0  0  0  0
    5.3949    2.8482   10.3208 H   0  0  0  0  0  0  0  0  0  0  0  0
    5.0504    1.1199   10.6395 H   0  0  0  0  0  0  0  0  0  0  0  0
    2.1194    6.2002    7.6574 H   0  0  0  0  0  0  0  0  0  0  0  0
    3.2889    5.3426    8.6184 H   0  0  0  0  0  0  0  0  0  0  0  0
   -0.1342   -0.2419   13.6061 H   0  0  0  0  0  0  0  0  0  0  0  0
   -3.0776    1.0040   11.7462 H   0  0  0  0  0  0  0  0  0  0  0  0
   -1.4823    0.2640   11.7134 H   0  0  0  0  0  0  0  0  0  0  0  0
   -2.0380    1.3248   13.0744 H   0  0  0  0  0  0  0  0  0  0  0  0
  1  2  1  0  0  0  0
  1 31  1  0  0  0  0
  1 32  1  0  0  0  0
  1 33  1  0  0  0  0
  2  3  1  0  0  0  0
  3  4  2  0  0  0  0
  3 28  1  0  0  0  0
  4  5  1  0  0  0  0
  4 34  1  0  0  0  0
  5  6  2  0  0  0  0
  5 35  1  0  0  0  0
  6  7  1  0  0  0  0
  6 27  1  0  0  0  0
  7  8  1  0  0  0  0
  7 36  1  0  0  0  0
  8  9  2  0  0  0  0
  8 16  1  0  0  0  0
  9 10  1  0  0  0  0
 10 11  2  0  0  0  0
 10 17  1  0  0  0  0
 11 12  1  0  0  0  0
 11 37  1  0  0  0  0
 12 13  1  0  0  0  0
 12 16  1  0  0  0  0
 13 14  2  0  0  0  0
 13 38  1  0  0  0  0
 14 15  1  0  0  0  0
 14 39  1  0  0  0  0
 15 16  2  0  0  0  0
 17 18  2  0  0  0  0
 17 22  1  0  0  0  0
 18 19  1  0  0  0  0
 18 40  1  0  0  0  0
 19 20  2  0  0  0  0
 19 41  1  0  0  0  0
 20 21  1  0  0  0  0
 20 24  1  0  0  0  0
 21 22  2  0  0  0  0
 21 42  1  0  0  0  0
 22 23  1  0  0  0  0
 23 43  1  0  0  0  0
 23 44  1  0  0  0  0
 23 45  1  0  0  0  0
 24 25  2  0  0  0  0
 24 26  1  0  0  0  0
 26 46  1  0  0  0  0
 26 47  1  0  0  0  0
 27 28  2  0  0  0  0
 27 48  1  0  0  0  0
 28 29  1  0  0  0  0
 29 30  1  0  0  0  0
 30 49  1  0  0  0  0
 30 50  1  0  0  0  0
 30 51  1  0  0  0  0
M  END
>  <IC50[nM]>
113

$$$$
