@<TRIPOS>MOLECULE
CHEMBL3265019
 46 50 0 0 0
SMALL
GASTEIGER
****
Structure written by MMmdl.
@<TRIPOS>ATOM
      1 C          -4.2567   -3.1043   13.5693 C.3     1  LIG1        0.0790
      2 O          -3.8736   -2.3605   14.7157 O.3     1  LIG1       -0.4915
      3 C          -2.5257   -2.1110   14.8169 C.ar    1  LIG1        0.1616
      4 C          -1.7458   -2.8699   15.6818 C.ar    1  LIG1       -0.0146
      5 C          -0.3904   -2.6103   15.8137 C.ar    1  LIG1       -0.0368
      6 C           0.2206   -1.5847   15.0868 C.ar    1  LIG1        0.0362
      7 N           1.6037   -1.3593   15.3213 N.pl3   1  LIG1       -0.2964
      8 C           2.5361   -0.4486   14.7616 C.ar    1  LIG1        0.1669
      9 N           2.1814    0.3735   13.7239 N.ar    1  LIG1       -0.2267
     10 C           3.1138    1.2388   13.2174 C.ar    1  LIG1        0.0898
     11 C           4.4183    1.2844   13.7022 C.ar    1  LIG1        0.0373
     12 N           4.7470    0.4870   14.7610 N.ar    1  LIG1       -0.3018
     13 C           5.8980    0.3781   15.4861 C.ar    1  LIG1        0.0294
     14 C           5.5879   -0.5236   16.5289 C.ar    1  LIG1        0.0465
     15 N           4.3760   -1.0435   16.3736 N.ar    1  LIG1       -0.2330
     16 C           3.8368   -0.3913   15.3236 C.ar    1  LIG1        0.1784
     17 C           2.6373    2.1616   12.1208 C.ar    1  LIG1        0.0040
     18 C           1.3117    2.6428   12.1323 C.ar    1  LIG1       -0.0503
     19 C           0.8392    3.5282   11.1613 C.ar    1  LIG1       -0.0318
     20 C           1.7204    3.9285   10.1646 C.ar    1  LIG1        0.1125
     21 N           1.5424    4.7860    9.1151 N.ar    1  LIG1       -0.1297
     22 N           2.7143    4.8525    8.3999 N.ar    1  LIG1       -0.0673
     23 N           3.5904    4.0382    9.0000 N.ar    1  LIG1       -0.2571
     24 C           3.0324    3.4382   10.1221 C.ar    1  LIG1        0.0864
     25 C           3.5249    2.5426   11.0797 C.ar    1  LIG1       -0.0255
     26 C          -0.5551   -0.8189   14.1919 C.ar    1  LIG1        0.0049
     27 C          -1.9443   -1.0883   14.0612 C.ar    1  LIG1        0.1632
     28 O          -2.7530   -0.3558   13.2052 O.3     1  LIG1       -0.4914
     29 C          -2.2324    0.6450   12.3520 C.3     1  LIG1        0.0790
     30 H          -5.3358   -3.2523   13.5866 H       1  LIG1        0.0660
     31 H          -3.7890   -4.0896   13.5590 H       1  LIG1        0.0660
     32 H          -4.0124   -2.5807   12.6437 H       1  LIG1        0.0660
     33 H          -2.1941   -3.6622   16.2628 H       1  LIG1        0.0656
     34 H           0.1988   -3.2066   16.4982 H       1  LIG1        0.0637
     35 H           1.9911   -1.9346   16.0533 H       1  LIG1        0.1537
     36 H           5.1807    1.9631   13.3423 H       1  LIG1        0.0835
     37 H           6.7854    0.9491   15.2761 H       1  LIG1        0.0829
     38 H           6.2290   -0.7940   17.3521 H       1  LIG1        0.0845
     39 H           0.6437    2.3379   12.9285 H       1  LIG1        0.0625
     40 H          -0.1664    3.8943   11.1902 H       1  LIG1        0.0640
     41 H           4.5235    3.9296    8.6264 H       1  LIG1        0.1907
     42 H           4.5235    2.1590   11.0319 H       1  LIG1        0.0646
     43 H          -0.1083   -0.0321   13.6247 H       1  LIG1        0.0674
     44 H          -3.0506    1.0729   11.7701 H       1  LIG1        0.0660
     45 H          -1.5096    0.2343   11.6496 H       1  LIG1        0.0660
     46 H          -1.7818    1.4502   12.9278 H       1  LIG1        0.0660
@<TRIPOS>BOND
     1     1     2    1
     2     1    30    1
     3     1    31    1
     4     1    32    1
     5     2     3    1
     6     3     4   ar
     7     3    27   ar
     8     4     5   ar
     9     4    33    1
    10     5     6   ar
    11     5    34    1
    12     6     7    1
    13     6    26   ar
    14     7     8    1
    15     7    35    1
    16     8     9   ar
    17     8    16   ar
    18     9    10   ar
    19    10    11   ar
    20    10    17    1
    21    11    12   ar
    22    11    36    1
    23    12    13   ar
    24    12    16   ar
    25    13    14   ar
    26    13    37    1
    27    14    15   ar
    28    14    38    1
    29    15    16   ar
    30    17    18   ar
    31    17    25   ar
    32    18    19   ar
    33    18    39    1
    34    19    20   ar
    35    19    40    1
    36    20    21   ar
    37    20    24   ar
    38    21    22   ar
    39    22    23   ar
    40    23    24   ar
    41    23    41    1
    42    24    25   ar
    43    25    42    1
    44    26    27   ar
    45    26    43    1
    46    27    28    1
    47    28    29    1
    48    29    44    1
    49    29    45    1
    50    29    46    1
