CHEMBL3265005
 OpenBabel02152110423D
Structure written by MMmdl.
 48 51  0  0  1  0  0  0  0  0999 V2000
   -4.2567   -3.1050   13.5684 C   0  0  0  0  0  0  0  0  0  0  0  0
   -3.8734   -2.3611   14.7148 O   0  0  0  0  0  0  0  0  0  0  0  0
   -2.5247   -2.1101   14.8166 C   0  0  0  0  0  0  0  0  0  0  0  0
   -1.7507   -2.8683   15.6828 C   0  0  0  0  0  0  0  0  0  0  0  0
   -0.3911   -2.6099   15.8185 C   0  0  0  0  0  0  0  0  0  0  0  0
    0.2170   -1.5863   15.0905 C   0  0  0  0  0  0  0  0  0  0  0  0
    1.6046   -1.3615   15.3286 N   0  0  0  0  0  0  0  0  0  0  0  0
    2.5322   -0.4485   14.7676 C   0  0  0  0  0  0  0  0  0  0  0  0
    2.1746    0.3813   13.7360 N   0  0  0  0  0  0  0  0  0  0  0  0
    3.1152    1.2349   13.2220 C   0  0  0  0  0  0  0  0  0  0  0  0
    4.4162    1.2784   13.7032 C   0  0  0  0  0  0  0  0  0  0  0  0
    4.7450    0.4849   14.7598 N   0  0  0  0  0  0  0  0  0  0  0  0
    5.8984    0.3795   15.4856 C   0  0  0  0  0  0  0  0  0  0  0  0
    5.5934   -0.5343   16.5244 C   0  0  0  0  0  0  0  0  0  0  0  0
    4.3805   -1.0504   16.3702 N   0  0  0  0  0  0  0  0  0  0  0  0
    3.8378   -0.3985   15.3258 C   0  0  0  0  0  0  0  0  0  0  0  0
    2.6545    2.1505   12.1229 C   0  0  0  0  0  0  0  0  0  0  0  0
    3.5650    2.6332   11.1660 C   0  0  0  0  0  0  0  0  0  0  0  0
    3.1279    3.4532   10.1263 C   0  0  0  0  0  0  0  0  0  0  0  0
    1.7853    3.8163   10.0263 C   0  0  0  0  0  0  0  0  0  0  0  0
    0.8655    3.3670   10.9906 C   0  0  0  0  0  0  0  0  0  0  0  0
    1.3076    2.5389   12.0352 C   0  0  0  0  0  0  0  0  0  0  0  0
   -0.6125    3.7616   10.9140 C   0  0  0  0  0  0  0  0  0  0  0  0
   -1.4124    3.3703   11.7502 O   0  0  0  0  0  0  0  0  0  0  0  0
   -0.9623    4.5440    9.8958 N   0  0  0  0  0  0  0  0  0  0  0  0
   -0.5525   -0.8154   14.1926 C   0  0  0  0  0  0  0  0  0  0  0  0
   -1.9431   -1.0889   14.0634 C   0  0  0  0  0  0  0  0  0  0  0  0
   -2.7491   -0.3514   13.2105 O   0  0  0  0  0  0  0  0  0  0  0  0
   -2.2119    0.5324   12.2516 C   0  0  0  0  0  0  0  0  0  0  0  0
   -5.3371   -3.2473   13.5828 H   0  0  0  0  0  0  0  0  0  0  0  0
   -3.7923   -4.0918   13.5617 H   0  0  0  0  0  0  0  0  0  0  0  0
   -4.0053   -2.5854   12.6423 H   0  0  0  0  0  0  0  0  0  0  0  0
   -2.2045   -3.6577   16.2649 H   0  0  0  0  0  0  0  0  0  0  0  0
    0.1939   -3.2023   16.5060 H   0  0  0  0  0  0  0  0  0  0  0  0
    1.9934   -1.9429   16.0579 H   0  0  0  0  0  0  0  0  0  0  0  0
    5.1774    1.9554   13.3408 H   0  0  0  0  0  0  0  0  0  0  0  0
    6.7817    0.9624   15.2771 H   0  0  0  0  0  0  0  0  0  0  0  0
    6.2343   -0.8101   17.3474 H   0  0  0  0  0  0  0  0  0  0  0  0
    4.6048    2.3502   11.2176 H   0  0  0  0  0  0  0  0  0  0  0  0
    3.8359    3.8027    9.3872 H   0  0  0  0  0  0  0  0  0  0  0  0
    1.4656    4.4411    9.2087 H   0  0  0  0  0  0  0  0  0  0  0  0
    0.6085    2.2013   12.7854 H   0  0  0  0  0  0  0  0  0  0  0  0
   -1.9282    4.8274    9.7978 H   0  0  0  0  0  0  0  0  0  0  0  0
   -0.2850    4.8642    9.2301 H   0  0  0  0  0  0  0  0  0  0  0  0
   -0.1105   -0.0248   13.6275 H   0  0  0  0  0  0  0  0  0  0  0  0
   -3.0285    0.9892   11.6884 H   0  0  0  0  0  0  0  0  0  0  0  0
   -1.5629    0.0226   11.5419 H   0  0  0  0  0  0  0  0  0  0  0  0
   -1.6668    1.3176   12.7602 H   0  0  0  0  0  0  0  0  0  0  0  0
  1  2  1  0  0  0  0
  1 30  1  0  0  0  0
  1 31  1  0  0  0  0
  1 32  1  0  0  0  0
  2  3  1  0  0  0  0
  3  4  2  0  0  0  0
  3 27  1  0  0  0  0
  4  5  1  0  0  0  0
  4 33  1  0  0  0  0
  5  6  2  0  0  0  0
  5 34  1  0  0  0  0
  6  7  1  0  0  0  0
  6 26  1  0  0  0  0
  7  8  1  0  0  0  0
  7 35  1  0  0  0  0
  8  9  2  0  0  0  0
  8 16  1  0  0  0  0
  9 10  1  0  0  0  0
 10 11  2  0  0  0  0
 10 17  1  0  0  0  0
 11 12  1  0  0  0  0
 11 36  1  0  0  0  0
 12 13  1  0  0  0  0
 12 16  1  0  0  0  0
 13 14  2  0  0  0  0
 13 37  1  0  0  0  0
 14 15  1  0  0  0  0
 14 38  1  0  0  0  0
 15 16  2  0  0  0  0
 17 18  2  0  0  0  0
 17 22  1  0  0  0  0
 18 19  1  0  0  0  0
 18 39  1  0  0  0  0
 19 20  2  0  0  0  0
 19 40  1  0  0  0  0
 20 21  1  0  0  0  0
 20 41  1  0  0  0  0
 21 22  2  0  0  0  0
 21 23  1  0  0  0  0
 22 42  1  0  0  0  0
 23 24  2  0  0  0  0
 23 25  1  0  0  0  0
 25 43  1  0  0  0  0
 25 44  1  0  0  0  0
 26 27  2  0  0  0  0
 26 45  1  0  0  0  0
 27 28  1  0  0  0  0
 28 29  1  0  0  0  0
 29 46  1  0  0  0  0
 29 47  1  0  0  0  0
 29 48  1  0  0  0  0
M  END
>  <IC50[nM]>
27.1

$$$$
