CHEMBL3259820
 OpenBabel02152110423D
Structure written by MMmdl.
 48 51  0  0  1  0  0  0  0  0999 V2000
   -4.2559   -3.1060   13.5669 C   0  0  0  0  0  0  0  0  0  0  0  0
   -3.8726   -2.3561   14.7087 O   0  0  0  0  0  0  0  0  0  0  0  0
   -2.5261   -2.1090   14.8139 C   0  0  0  0  0  0  0  0  0  0  0  0
   -1.7497   -2.8677   15.6812 C   0  0  0  0  0  0  0  0  0  0  0  0
   -0.3968   -2.6084   15.8204 C   0  0  0  0  0  0  0  0  0  0  0  0
    0.2208   -1.5821   15.0957 C   0  0  0  0  0  0  0  0  0  0  0  0
    1.6029   -1.3570   15.3324 N   0  0  0  0  0  0  0  0  0  0  0  0
    2.5301   -0.4418   14.7814 C   0  0  0  0  0  0  0  0  0  0  0  0
    2.1713    0.3833   13.7481 N   0  0  0  0  0  0  0  0  0  0  0  0
    3.1089    1.2308   13.2274 C   0  0  0  0  0  0  0  0  0  0  0  0
    4.4101    1.2783   13.7032 C   0  0  0  0  0  0  0  0  0  0  0  0
    4.7426    0.4910   14.7676 N   0  0  0  0  0  0  0  0  0  0  0  0
    5.8953    0.3872   15.4836 C   0  0  0  0  0  0  0  0  0  0  0  0
    5.5954   -0.5343   16.5177 C   0  0  0  0  0  0  0  0  0  0  0  0
    4.3825   -1.0512   16.3664 N   0  0  0  0  0  0  0  0  0  0  0  0
    3.8364   -0.4021   15.3289 C   0  0  0  0  0  0  0  0  0  0  0  0
    2.6465    2.1385   12.1256 C   0  0  0  0  0  0  0  0  0  0  0  0
    3.5557    2.6368   11.1745 C   0  0  0  0  0  0  0  0  0  0  0  0
    3.1190    3.4676   10.1463 C   0  0  0  0  0  0  0  0  0  0  0  0
    1.7635    3.8248   10.0594 C   0  0  0  0  0  0  0  0  0  0  0  0
    0.8615    3.3448   11.0110 C   0  0  0  0  0  0  0  0  0  0  0  0
    1.2990    2.5127   12.0324 C   0  0  0  0  0  0  0  0  0  0  0  0
    1.2918    4.7293    8.9608 C   0  0  0  0  0  0  0  0  0  0  0  0
    2.0878    5.3456    8.2497 O   0  0  0  0  0  0  0  0  0  0  0  0
   -0.0320    4.8143    8.7824 N   0  0  0  0  0  0  0  0  0  0  0  0
   -0.5541   -0.8144   14.1977 C   0  0  0  0  0  0  0  0  0  0  0  0
   -1.9430   -1.0833   14.0624 C   0  0  0  0  0  0  0  0  0  0  0  0
   -2.7475   -0.3431   13.2088 O   0  0  0  0  0  0  0  0  0  0  0  0
   -2.2164    0.6551   12.3579 C   0  0  0  0  0  0  0  0  0  0  0  0
   -5.3366   -3.2485   13.5818 H   0  0  0  0  0  0  0  0  0  0  0  0
   -3.7903   -4.0925   13.5604 H   0  0  0  0  0  0  0  0  0  0  0  0
   -4.0039   -2.5877   12.6407 H   0  0  0  0  0  0  0  0  0  0  0  0
   -2.2037   -3.6575   16.2628 H   0  0  0  0  0  0  0  0  0  0  0  0
    0.1911   -3.2025   16.5100 H   0  0  0  0  0  0  0  0  0  0  0  0
    1.9934   -1.9421   16.0553 H   0  0  0  0  0  0  0  0  0  0  0  0
    5.1714    1.9452   13.3228 H   0  0  0  0  0  0  0  0  0  0  0  0
    6.7795    0.9683   15.2756 H   0  0  0  0  0  0  0  0  0  0  0  0
    6.2400   -0.8202   17.3279 H   0  0  0  0  0  0  0  0  0  0  0  0
    4.5974    2.3606   11.2253 H   0  0  0  0  0  0  0  0  0  0  0  0
    3.8290    3.8282    9.4160 H   0  0  0  0  0  0  0  0  0  0  0  0
   -0.1777    3.6239   10.9656 H   0  0  0  0  0  0  0  0  0  0  0  0
    0.5906    2.1614   12.7684 H   0  0  0  0  0  0  0  0  0  0  0  0
   -0.4213    5.3894    8.0510 H   0  0  0  0  0  0  0  0  0  0  0  0
   -0.6482    4.2950    9.3843 H   0  0  0  0  0  0  0  0  0  0  0  0
   -0.1068   -0.0259   13.6327 H   0  0  0  0  0  0  0  0  0  0  0  0
   -3.0358    1.0794   11.7746 H   0  0  0  0  0  0  0  0  0  0  0  0
   -1.4924    0.2406   11.6554 H   0  0  0  0  0  0  0  0  0  0  0  0
   -1.7680    1.4642   12.9342 H   0  0  0  0  0  0  0  0  0  0  0  0
  1  2  1  0  0  0  0
  1 30  1  0  0  0  0
  1 31  1  0  0  0  0
  1 32  1  0  0  0  0
  2  3  1  0  0  0  0
  3  4  2  0  0  0  0
  3 27  1  0  0  0  0
  4  5  1  0  0  0  0
  4 33  1  0  0  0  0
  5  6  2  0  0  0  0
  5 34  1  0  0  0  0
  6  7  1  0  0  0  0
  6 26  1  0  0  0  0
  7  8  1  0  0  0  0
  7 35  1  0  0  0  0
  8  9  2  0  0  0  0
  8 16  1  0  0  0  0
  9 10  1  0  0  0  0
 10 11  2  0  0  0  0
 10 17  1  0  0  0  0
 11 12  1  0  0  0  0
 11 36  1  0  0  0  0
 12 13  1  0  0  0  0
 12 16  1  0  0  0  0
 13 14  2  0  0  0  0
 13 37  1  0  0  0  0
 14 15  1  0  0  0  0
 14 38  1  0  0  0  0
 15 16  2  0  0  0  0
 17 18  2  0  0  0  0
 17 22  1  0  0  0  0
 18 19  1  0  0  0  0
 18 39  1  0  0  0  0
 19 20  2  0  0  0  0
 19 40  1  0  0  0  0
 20 21  1  0  0  0  0
 20 23  1  0  0  0  0
 21 22  2  0  0  0  0
 21 41  1  0  0  0  0
 22 42  1  0  0  0  0
 23 24  2  0  0  0  0
 23 25  1  0  0  0  0
 25 43  1  0  0  0  0
 25 44  1  0  0  0  0
 26 27  2  0  0  0  0
 26 45  1  0  0  0  0
 27 28  1  0  0  0  0
 28 29  1  0  0  0  0
 29 46  1  0  0  0  0
 29 47  1  0  0  0  0
 29 48  1  0  0  0  0
M  END
>  <IC50[nM]>
17.7

$$$$
