@<TRIPOS>MOLECULE
CHEMBL3265030_n
 52 57 0 0 0
SMALL
GASTEIGER
****
Structure written by MMmdl.
@<TRIPOS>ATOM
      1 C          -6.0443   -4.4602   16.2962 C.3     1  LIG1       -0.0331
      2 C          -5.6240   -3.4001   15.2728 C.3     1  LIG1        0.0943
      3 O          -6.7329   -2.9884   14.5080 O.3     1  LIG1       -0.3857
      4 C          -4.7833   -2.2666   15.8350 C.3     1  LIG1        0.0424
      5 N          -3.8370   -2.3937   14.7064 N.pl3   1  LIG1       -0.3243
      6 C          -4.3873   -3.7457   14.4627 C.3     1  LIG1        0.0424
      7 C          -2.4739   -2.0989   14.7890 C.ar    1  LIG1        0.0300
      8 C          -1.8935   -1.0737   14.0433 C.ar    1  LIG1       -0.0389
      9 C          -0.5352   -0.8073   14.1963 C.ar    1  LIG1       -0.0388
     10 C           0.2332   -1.5617   15.0991 C.ar    1  LIG1        0.0326
     11 N           1.5948   -1.3216   15.3436 N.pl3   1  LIG1       -0.2965
     12 C           2.5323   -0.4320   14.7835 C.ar    1  LIG1        0.1669
     13 N           2.1832    0.3856   13.7527 N.ar    1  LIG1       -0.2267
     14 C           3.0997    1.2392   13.2138 C.ar    1  LIG1        0.0897
     15 C           4.4085    1.2886   13.6971 C.ar    1  LIG1        0.0373
     16 N           4.7393    0.4966   14.7557 N.ar    1  LIG1       -0.3018
     17 C           5.8912    0.3843   15.4874 C.ar    1  LIG1        0.0294
     18 C           5.6000   -0.5403   16.4969 C.ar    1  LIG1        0.0465
     19 N           4.3900   -1.0499   16.3863 N.ar    1  LIG1       -0.2330
     20 C           3.8285   -0.3910   15.3363 C.ar    1  LIG1        0.1784
     21 C           2.6272    2.1508   12.1213 C.ar    1  LIG1        0.0039
     22 C           3.5370    2.6346   11.1631 C.ar    1  LIG1       -0.0518
     23 C           3.1492    3.4622   10.1085 C.ar    1  LIG1       -0.0505
     24 C           1.8011    3.8208   10.0156 C.ar    1  LIG1        0.0195
     25 C           0.9990    4.5979    9.1271 C.ar    1  LIG1        0.0569
     26 N          -0.2497    4.6170    9.5128 N.ar    1  LIG1       -0.1812
     27 N          -0.3315    3.8838   10.6343 N.ar    1  LIG1       -0.2769
     28 C           0.8874    3.3527   10.9946 C.ar    1  LIG1        0.0663
     29 C           1.2729    2.5247   12.0514 C.ar    1  LIG1       -0.0271
     30 C          -0.3672   -2.5916   15.8262 C.ar    1  LIG1       -0.0388
     31 C          -1.7168   -2.8552   15.6739 C.ar    1  LIG1       -0.0389
     32 H          -5.2050   -4.7984   16.9035 H       1  LIG1        0.0258
     33 H          -6.8054   -4.0661   16.9698 H       1  LIG1        0.0258
     34 H          -6.4675   -5.3321   15.7974 H       1  LIG1        0.0258
     35 H          -6.4046   -2.3323   13.8881 H       1  LIG1        0.2103
     36 H          -4.3284   -2.4863   16.8029 H       1  LIG1        0.0492
     37 H          -5.2892   -1.3024   15.8976 H       1  LIG1        0.0492
     38 H          -4.5733   -3.9761   13.4129 H       1  LIG1        0.0492
     39 H          -3.7850   -4.5482   14.8924 H       1  LIG1        0.0492
     40 H          -2.4933   -0.4925   13.3604 H       1  LIG1        0.0637
     41 H          -0.1177   -0.0073   13.6132 H       1  LIG1        0.0637
     42 H           2.0095   -1.8739   16.0815 H       1  LIG1        0.1537
     43 H           5.1692    1.9645   13.3454 H       1  LIG1        0.0835
     44 H           6.7768    0.9622   15.2769 H       1  LIG1        0.0829
     45 H           6.2732   -0.8674   17.2818 H       1  LIG1        0.0845
     46 H           4.5724    2.3319   11.2116 H       1  LIG1        0.0624
     47 H           3.8628    3.8049    9.3741 H       1  LIG1        0.0625
     48 H           1.3157    5.1254    8.2407 H       1  LIG1        0.0854
     49 H          -1.2162    3.7634   11.1025 H       1  LIG1        0.1889
     50 H           0.5632    2.1669   12.7820 H       1  LIG1        0.0645
     51 H           0.2126   -3.1777   16.5228 H       1  LIG1        0.0637
     52 H          -2.1693   -3.6422   16.2570 H       1  LIG1        0.0637
@<TRIPOS>BOND
     1     1     2    1
     2     1    32    1
     3     1    33    1
     4     1    34    1
     5     2     3    1
     6     2     4    1
     7     2     6    1
     8     3    35    1
     9     4     5    1
    10     4    36    1
    11     4    37    1
    12     5     6    1
    13     5     7    1
    14     6    38    1
    15     6    39    1
    16     7     8   ar
    17     7    31   ar
    18     8     9   ar
    19     8    40    1
    20     9    10   ar
    21     9    41    1
    22    10    11    1
    23    10    30   ar
    24    11    12    1
    25    11    42    1
    26    12    13   ar
    27    12    20   ar
    28    13    14   ar
    29    14    15   ar
    30    14    21    1
    31    15    16   ar
    32    15    43    1
    33    16    17   ar
    34    16    20   ar
    35    17    18   ar
    36    17    44    1
    37    18    19   ar
    38    18    45    1
    39    19    20   ar
    40    21    22   ar
    41    21    29   ar
    42    22    23   ar
    43    22    46    1
    44    23    24   ar
    45    23    47    1
    46    24    25   ar
    47    24    28   ar
    48    25    26   ar
    49    25    48    1
    50    26    27   ar
    51    27    28   ar
    52    27    49    1
    53    28    29   ar
    54    29    50    1
    55    30    31   ar
    56    30    51    1
    57    31    52    1
