CHEMBL3265019
 OpenBabel02152110423D
Structure written by MMmdl.
 46 50  0  0  1  0  0  0  0  0999 V2000
   -4.2567   -3.1043   13.5693 C   0  0  0  0  0  0  0  0  0  0  0  0
   -3.8736   -2.3605   14.7157 O   0  0  0  0  0  0  0  0  0  0  0  0
   -2.5257   -2.1110   14.8169 C   0  0  0  0  0  0  0  0  0  0  0  0
   -1.7458   -2.8699   15.6818 C   0  0  0  0  0  0  0  0  0  0  0  0
   -0.3904   -2.6103   15.8137 C   0  0  0  0  0  0  0  0  0  0  0  0
    0.2206   -1.5847   15.0868 C   0  0  0  0  0  0  0  0  0  0  0  0
    1.6037   -1.3593   15.3213 N   0  0  0  0  0  0  0  0  0  0  0  0
    2.5361   -0.4486   14.7616 C   0  0  0  0  0  0  0  0  0  0  0  0
    2.1814    0.3735   13.7239 N   0  0  0  0  0  0  0  0  0  0  0  0
    3.1138    1.2388   13.2174 C   0  0  0  0  0  0  0  0  0  0  0  0
    4.4183    1.2844   13.7022 C   0  0  0  0  0  0  0  0  0  0  0  0
    4.7470    0.4870   14.7610 N   0  0  0  0  0  0  0  0  0  0  0  0
    5.8980    0.3781   15.4861 C   0  0  0  0  0  0  0  0  0  0  0  0
    5.5879   -0.5236   16.5289 C   0  0  0  0  0  0  0  0  0  0  0  0
    4.3760   -1.0435   16.3736 N   0  0  0  0  0  0  0  0  0  0  0  0
    3.8368   -0.3913   15.3236 C   0  0  0  0  0  0  0  0  0  0  0  0
    2.6373    2.1616   12.1208 C   0  0  0  0  0  0  0  0  0  0  0  0
    1.3117    2.6428   12.1323 C   0  0  0  0  0  0  0  0  0  0  0  0
    0.8392    3.5282   11.1613 C   0  0  0  0  0  0  0  0  0  0  0  0
    1.7204    3.9285   10.1646 C   0  0  0  0  0  0  0  0  0  0  0  0
    1.5424    4.7860    9.1151 N   0  0  0  0  0  0  0  0  0  0  0  0
    2.7143    4.8525    8.3999 N   0  0  0  0  0  0  0  0  0  0  0  0
    3.5904    4.0382    9.0000 N   0  0  0  0  0  0  0  0  0  0  0  0
    3.0324    3.4382   10.1221 C   0  0  0  0  0  0  0  0  0  0  0  0
    3.5249    2.5426   11.0797 C   0  0  0  0  0  0  0  0  0  0  0  0
   -0.5551   -0.8189   14.1919 C   0  0  0  0  0  0  0  0  0  0  0  0
   -1.9443   -1.0883   14.0612 C   0  0  0  0  0  0  0  0  0  0  0  0
   -2.7530   -0.3558   13.2052 O   0  0  0  0  0  0  0  0  0  0  0  0
   -2.2324    0.6450   12.3520 C   0  0  0  0  0  0  0  0  0  0  0  0
   -5.3358   -3.2523   13.5866 H   0  0  0  0  0  0  0  0  0  0  0  0
   -3.7890   -4.0896   13.5590 H   0  0  0  0  0  0  0  0  0  0  0  0
   -4.0124   -2.5807   12.6437 H   0  0  0  0  0  0  0  0  0  0  0  0
   -2.1941   -3.6622   16.2628 H   0  0  0  0  0  0  0  0  0  0  0  0
    0.1988   -3.2066   16.4982 H   0  0  0  0  0  0  0  0  0  0  0  0
    1.9911   -1.9346   16.0533 H   0  0  0  0  0  0  0  0  0  0  0  0
    5.1807    1.9631   13.3423 H   0  0  0  0  0  0  0  0  0  0  0  0
    6.7854    0.9491   15.2761 H   0  0  0  0  0  0  0  0  0  0  0  0
    6.2290   -0.7940   17.3521 H   0  0  0  0  0  0  0  0  0  0  0  0
    0.6437    2.3379   12.9285 H   0  0  0  0  0  0  0  0  0  0  0  0
   -0.1664    3.8943   11.1902 H   0  0  0  0  0  0  0  0  0  0  0  0
    4.5235    3.9296    8.6264 H   0  0  0  0  0  0  0  0  0  0  0  0
    4.5235    2.1590   11.0319 H   0  0  0  0  0  0  0  0  0  0  0  0
   -0.1083   -0.0321   13.6247 H   0  0  0  0  0  0  0  0  0  0  0  0
   -3.0506    1.0729   11.7701 H   0  0  0  0  0  0  0  0  0  0  0  0
   -1.5096    0.2343   11.6496 H   0  0  0  0  0  0  0  0  0  0  0  0
   -1.7818    1.4502   12.9278 H   0  0  0  0  0  0  0  0  0  0  0  0
  1  2  1  0  0  0  0
  1 30  1  0  0  0  0
  1 31  1  0  0  0  0
  1 32  1  0  0  0  0
  2  3  1  0  0  0  0
  3  4  2  0  0  0  0
  3 27  1  0  0  0  0
  4  5  1  0  0  0  0
  4 33  1  0  0  0  0
  5  6  2  0  0  0  0
  5 34  1  0  0  0  0
  6  7  1  0  0  0  0
  6 26  1  0  0  0  0
  7  8  1  0  0  0  0
  7 35  1  0  0  0  0
  8  9  2  0  0  0  0
  8 16  1  0  0  0  0
  9 10  1  0  0  0  0
 10 11  2  0  0  0  0
 10 17  1  0  0  0  0
 11 12  1  0  0  0  0
 11 36  1  0  0  0  0
 12 13  1  0  0  0  0
 12 16  1  0  0  0  0
 13 14  2  0  0  0  0
 13 37  1  0  0  0  0
 14 15  1  0  0  0  0
 14 38  1  0  0  0  0
 15 16  2  0  0  0  0
 17 18  2  0  0  0  0
 17 25  1  0  0  0  0
 18 19  1  0  0  0  0
 18 39  1  0  0  0  0
 19 20  2  0  0  0  0
 19 40  1  0  0  0  0
 20 21  1  0  0  0  0
 20 24  1  0  0  0  0
 21 22  2  0  0  0  0
 22 23  1  0  0  0  0
 23 24  1  0  0  0  0
 23 41  1  0  0  0  0
 24 25  2  0  0  0  0
 25 42  1  0  0  0  0
 26 27  2  0  0  0  0
 26 43  1  0  0  0  0
 27 28  1  0  0  0  0
 28 29  1  0  0  0  0
 29 44  1  0  0  0  0
 29 45  1  0  0  0  0
 29 46  1  0  0  0  0
M  END
>  <IC50[nM]>
12.6

$$$$
