CHEMBL3265027
 OpenBabel02152110423D
Structure written by MMmdl.
 39 43  0  0  1  0  0  0  0  0999 V2000
    1.6124   -1.3917   15.3063 N   0  0  0  0  0  0  0  0  0  0  0  0
    0.2249   -1.5978   15.0814 C   0  0  0  0  0  0  0  0  0  0  0  0
   -0.5442   -0.8150   14.1982 C   0  0  0  0  0  0  0  0  0  0  0  0
   -1.9142   -1.0738   14.0573 C   0  0  0  0  0  0  0  0  0  0  0  0
   -2.5121   -2.0998   14.7912 C   0  0  0  0  0  0  0  0  0  0  0  0
   -1.7536   -2.8696   15.6610 C   0  0  0  0  0  0  0  0  0  0  0  0
   -0.3955   -2.6216   15.8033 C   0  0  0  0  0  0  0  0  0  0  0  0
    2.5315   -0.4491   14.7651 C   0  0  0  0  0  0  0  0  0  0  0  0
    2.1583    0.3961   13.7551 N   0  0  0  0  0  0  0  0  0  0  0  0
    3.0948    1.2419   13.2245 C   0  0  0  0  0  0  0  0  0  0  0  0
    4.4047    1.2813   13.6954 C   0  0  0  0  0  0  0  0  0  0  0  0
    4.7386    0.4915   14.7531 N   0  0  0  0  0  0  0  0  0  0  0  0
    5.8960    0.3859   15.4809 C   0  0  0  0  0  0  0  0  0  0  0  0
    5.5970   -0.5411   16.5116 C   0  0  0  0  0  0  0  0  0  0  0  0
    4.3870   -1.0586   16.3541 N   0  0  0  0  0  0  0  0  0  0  0  0
    3.8354   -0.3959   15.3220 C   0  0  0  0  0  0  0  0  0  0  0  0
    2.6241    2.1558   12.1223 C   0  0  0  0  0  0  0  0  0  0  0  0
    3.5409    2.6448   11.1668 C   0  0  0  0  0  0  0  0  0  0  0  0
    3.1526    3.4655   10.1090 C   0  0  0  0  0  0  0  0  0  0  0  0
    1.8070    3.8204   10.0137 C   0  0  0  0  0  0  0  0  0  0  0  0
    0.9973    4.6040    9.1190 C   0  0  0  0  0  0  0  0  0  0  0  0
   -0.2435    4.6079    9.5202 N   0  0  0  0  0  0  0  0  0  0  0  0
   -0.3316    3.8816   10.6309 N   0  0  0  0  0  0  0  0  0  0  0  0
    0.8832    3.3484   10.9943 C   0  0  0  0  0  0  0  0  0  0  0  0
    1.2619    2.5173   12.0545 C   0  0  0  0  0  0  0  0  0  0  0  0
    2.0176   -2.0162   15.9915 H   0  0  0  0  0  0  0  0  0  0  0  0
   -0.1036   -0.0170   13.6342 H   0  0  0  0  0  0  0  0  0  0  0  0
   -2.5121   -0.4793   13.3847 H   0  0  0  0  0  0  0  0  0  0  0  0
   -3.5698   -2.2967   14.6864 H   0  0  0  0  0  0  0  0  0  0  0  0
   -2.2195   -3.6606   16.2340 H   0  0  0  0  0  0  0  0  0  0  0  0
    0.1884   -3.2203   16.4893 H   0  0  0  0  0  0  0  0  0  0  0  0
    5.1658    1.9496   13.3207 H   0  0  0  0  0  0  0  0  0  0  0  0
    6.7756    0.9786   15.2759 H   0  0  0  0  0  0  0  0  0  0  0  0
    6.2399   -0.8270   17.3309 H   0  0  0  0  0  0  0  0  0  0  0  0
    4.5780    2.3565   11.2387 H   0  0  0  0  0  0  0  0  0  0  0  0
    3.8751    3.8096    9.3796 H   0  0  0  0  0  0  0  0  0  0  0  0
    1.3042    5.1362    8.2332 H   0  0  0  0  0  0  0  0  0  0  0  0
   -1.2186    3.7731   11.1004 H   0  0  0  0  0  0  0  0  0  0  0  0
    0.5529    2.1690   12.7938 H   0  0  0  0  0  0  0  0  0  0  0  0
  1  2  1  0  0  0  0
  1  8  1  0  0  0  0
  1 26  1  0  0  0  0
  2  3  2  0  0  0  0
  2  7  1  0  0  0  0
  3  4  1  0  0  0  0
  3 27  1  0  0  0  0
  4  5  2  0  0  0  0
  4 28  1  0  0  0  0
  5  6  1  0  0  0  0
  5 29  1  0  0  0  0
  6  7  2  0  0  0  0
  6 30  1  0  0  0  0
  7 31  1  0  0  0  0
  8  9  2  0  0  0  0
  8 16  1  0  0  0  0
  9 10  1  0  0  0  0
 10 11  2  0  0  0  0
 10 17  1  0  0  0  0
 11 12  1  0  0  0  0
 11 32  1  0  0  0  0
 12 13  1  0  0  0  0
 12 16  1  0  0  0  0
 13 14  2  0  0  0  0
 13 33  1  0  0  0  0
 14 15  1  0  0  0  0
 14 34  1  0  0  0  0
 15 16  2  0  0  0  0
 17 18  2  0  0  0  0
 17 25  1  0  0  0  0
 18 19  1  0  0  0  0
 18 35  1  0  0  0  0
 19 20  2  0  0  0  0
 19 36  1  0  0  0  0
 20 21  1  0  0  0  0
 20 24  1  0  0  0  0
 21 22  2  0  0  0  0
 21 37  1  0  0  0  0
 22 23  1  0  0  0  0
 23 24  1  0  0  0  0
 23 38  1  0  0  0  0
 24 25  2  0  0  0  0
 25 39  1  0  0  0  0
M  END
>  <IC50[nM]>
26.8

$$$$
