CHEMBL3265017
 OpenBabel02152110423D
Structure written by MMmdl.
 47 51  0  0  1  0  0  0  0  0999 V2000
   -4.2568   -3.1045   13.5692 C   0  0  0  0  0  0  0  0  0  0  0  0
   -3.8735   -2.3609   14.7157 O   0  0  0  0  0  0  0  0  0  0  0  0
   -2.5254   -2.1112   14.8167 C   0  0  0  0  0  0  0  0  0  0  0  0
   -1.7461   -2.8700   15.6816 C   0  0  0  0  0  0  0  0  0  0  0  0
   -0.3903   -2.6103   15.8137 C   0  0  0  0  0  0  0  0  0  0  0  0
    0.2206   -1.5848   15.0868 C   0  0  0  0  0  0  0  0  0  0  0  0
    1.6038   -1.3598   15.3228 N   0  0  0  0  0  0  0  0  0  0  0  0
    2.5359   -0.4458   14.7609 C   0  0  0  0  0  0  0  0  0  0  0  0
    2.1794    0.3745   13.7258 N   0  0  0  0  0  0  0  0  0  0  0  0
    3.1126    1.2387   13.2174 C   0  0  0  0  0  0  0  0  0  0  0  0
    4.4180    1.2838   13.7013 C   0  0  0  0  0  0  0  0  0  0  0  0
    4.7460    0.4885   14.7593 N   0  0  0  0  0  0  0  0  0  0  0  0
    5.8978    0.3783   15.4862 C   0  0  0  0  0  0  0  0  0  0  0  0
    5.5892   -0.5252   16.5282 C   0  0  0  0  0  0  0  0  0  0  0  0
    4.3768   -1.0429   16.3726 N   0  0  0  0  0  0  0  0  0  0  0  0
    3.8366   -0.3928   15.3256 C   0  0  0  0  0  0  0  0  0  0  0  0
    2.6368    2.1616   12.1201 C   0  0  0  0  0  0  0  0  0  0  0  0
    3.5454    2.6408   11.1618 C   0  0  0  0  0  0  0  0  0  0  0  0
    3.1453    3.4625   10.1097 C   0  0  0  0  0  0  0  0  0  0  0  0
    1.7994    3.8163   10.0176 C   0  0  0  0  0  0  0  0  0  0  0  0
    0.9914    4.5941    9.1197 C   0  0  0  0  0  0  0  0  0  0  0  0
   -0.2494    4.6053    9.5133 N   0  0  0  0  0  0  0  0  0  0  0  0
   -0.3372    3.8935   10.6271 N   0  0  0  0  0  0  0  0  0  0  0  0
    0.8851    3.3607   10.9950 C   0  0  0  0  0  0  0  0  0  0  0  0
    1.2726    2.5413   12.0626 C   0  0  0  0  0  0  0  0  0  0  0  0
   -0.5549   -0.8187   14.1915 C   0  0  0  0  0  0  0  0  0  0  0  0
   -1.9439   -1.0882   14.0610 C   0  0  0  0  0  0  0  0  0  0  0  0
   -2.7521   -0.3548   13.2056 O   0  0  0  0  0  0  0  0  0  0  0  0
   -2.2313    0.6456   12.3518 C   0  0  0  0  0  0  0  0  0  0  0  0
   -5.3359   -3.2524   13.5865 H   0  0  0  0  0  0  0  0  0  0  0  0
   -3.7887   -4.0896   13.5588 H   0  0  0  0  0  0  0  0  0  0  0  0
   -4.0122   -2.5810   12.6435 H   0  0  0  0  0  0  0  0  0  0  0  0
   -2.1953   -3.6619   16.2627 H   0  0  0  0  0  0  0  0  0  0  0  0
    0.1988   -3.2059   16.4986 H   0  0  0  0  0  0  0  0  0  0  0  0
    1.9915   -1.9358   16.0538 H   0  0  0  0  0  0  0  0  0  0  0  0
    5.1799    1.9624   13.3414 H   0  0  0  0  0  0  0  0  0  0  0  0
    6.7849    0.9516   15.2761 H   0  0  0  0  0  0  0  0  0  0  0  0
    6.2311   -0.7975   17.3512 H   0  0  0  0  0  0  0  0  0  0  0  0
    4.5870    2.3473   11.2231 H   0  0  0  0  0  0  0  0  0  0  0  0
    3.8550    3.8058    9.3820 H   0  0  0  0  0  0  0  0  0  0  0  0
    1.3018    5.1155    8.2351 H   0  0  0  0  0  0  0  0  0  0  0  0
   -1.2265    3.7931   11.0919 H   0  0  0  0  0  0  0  0  0  0  0  0
    0.5730    2.2156   12.8045 H   0  0  0  0  0  0  0  0  0  0  0  0
   -0.1088   -0.0311   13.6242 H   0  0  0  0  0  0  0  0  0  0  0  0
   -3.0501    1.0729   11.7701 H   0  0  0  0  0  0  0  0  0  0  0  0
   -1.5087    0.2343   11.6493 H   0  0  0  0  0  0  0  0  0  0  0  0
   -1.7811    1.4509   12.9278 H   0  0  0  0  0  0  0  0  0  0  0  0
  1  2  1  0  0  0  0
  1 30  1  0  0  0  0
  1 31  1  0  0  0  0
  1 32  1  0  0  0  0
  2  3  1  0  0  0  0
  3  4  2  0  0  0  0
  3 27  1  0  0  0  0
  4  5  1  0  0  0  0
  4 33  1  0  0  0  0
  5  6  2  0  0  0  0
  5 34  1  0  0  0  0
  6  7  1  0  0  0  0
  6 26  1  0  0  0  0
  7  8  1  0  0  0  0
  7 35  1  0  0  0  0
  8  9  2  0  0  0  0
  8 16  1  0  0  0  0
  9 10  1  0  0  0  0
 10 11  2  0  0  0  0
 10 17  1  0  0  0  0
 11 12  1  0  0  0  0
 11 36  1  0  0  0  0
 12 13  1  0  0  0  0
 12 16  1  0  0  0  0
 13 14  2  0  0  0  0
 13 37  1  0  0  0  0
 14 15  1  0  0  0  0
 14 38  1  0  0  0  0
 15 16  2  0  0  0  0
 17 18  2  0  0  0  0
 17 25  1  0  0  0  0
 18 19  1  0  0  0  0
 18 39  1  0  0  0  0
 19 20  2  0  0  0  0
 19 40  1  0  0  0  0
 20 21  1  0  0  0  0
 20 24  1  0  0  0  0
 21 22  2  0  0  0  0
 21 41  1  0  0  0  0
 22 23  1  0  0  0  0
 23 24  1  0  0  0  0
 23 42  1  0  0  0  0
 24 25  2  0  0  0  0
 25 43  1  0  0  0  0
 26 27  2  0  0  0  0
 26 44  1  0  0  0  0
 27 28  1  0  0  0  0
 28 29  1  0  0  0  0
 29 45  1  0  0  0  0
 29 46  1  0  0  0  0
 29 47  1  0  0  0  0
M  END
>  <IC50[nM]>
3.8

$$$$
