CHEMBL3265034
 OpenBabel02152110423D
Structure written by MMmdl.
 53 58  0  0  1  0  0  0  0  0999 V2000
   -5.7484   -4.1352   14.0916 C   0  0  0  0  0  0  0  0  0  0  0  0
   -4.2467   -3.7965   14.1043 C   0  0  0  0  0  0  0  0  0  0  0  0
   -4.0046   -2.3867   14.6667 C   0  0  0  0  0  0  0  0  0  0  0  0
   -4.7211   -2.2350   16.0203 C   0  0  0  0  0  0  0  0  0  0  0  0
   -6.1989   -2.6529   15.9141 C   0  0  0  0  0  0  0  0  0  0  0  0
   -6.2949   -3.9790   15.3990 O   0  0  0  0  0  0  0  0  0  0  0  0
   -2.5163   -2.1019   14.8026 C   0  0  0  0  0  0  0  0  0  0  0  0
   -1.7444   -2.8650   15.6773 C   0  0  0  0  0  0  0  0  0  0  0  0
   -0.3947   -2.6068   15.8182 C   0  0  0  0  0  0  0  0  0  0  0  0
    0.2168   -1.5789   15.0929 C   0  0  0  0  0  0  0  0  0  0  0  0
    1.5959   -1.3413   15.3408 N   0  0  0  0  0  0  0  0  0  0  0  0
    2.5346   -0.4433   14.7633 C   0  0  0  0  0  0  0  0  0  0  0  0
    2.1825    0.3683   13.7202 N   0  0  0  0  0  0  0  0  0  0  0  0
    3.1144    1.2372   13.2163 C   0  0  0  0  0  0  0  0  0  0  0  0
    4.4190    1.2837   13.7018 C   0  0  0  0  0  0  0  0  0  0  0  0
    4.7465    0.4877   14.7594 N   0  0  0  0  0  0  0  0  0  0  0  0
    5.8977    0.3771   15.4862 C   0  0  0  0  0  0  0  0  0  0  0  0
    5.5879   -0.5237   16.5292 C   0  0  0  0  0  0  0  0  0  0  0  0
    4.3754   -1.0416   16.3746 N   0  0  0  0  0  0  0  0  0  0  0  0
    3.8361   -0.3925   15.3266 C   0  0  0  0  0  0  0  0  0  0  0  0
    2.6384    2.1617   12.1197 C   0  0  0  0  0  0  0  0  0  0  0  0
    3.5461    2.6405   11.1618 C   0  0  0  0  0  0  0  0  0  0  0  0
    3.1445    3.4623   10.1105 C   0  0  0  0  0  0  0  0  0  0  0  0
    1.7985    3.8158   10.0184 C   0  0  0  0  0  0  0  0  0  0  0  0
    0.9907    4.5934    9.1205 C   0  0  0  0  0  0  0  0  0  0  0  0
   -0.2502    4.6054    9.5128 N   0  0  0  0  0  0  0  0  0  0  0  0
   -0.3377    3.8946   10.6262 N   0  0  0  0  0  0  0  0  0  0  0  0
    0.8856    3.3616   10.9945 C   0  0  0  0  0  0  0  0  0  0  0  0
    1.2735    2.5429   12.0624 C   0  0  0  0  0  0  0  0  0  0  0  0
   -0.5534   -0.8155   14.1947 C   0  0  0  0  0  0  0  0  0  0  0  0
   -1.9224   -1.0793   14.0569 C   0  0  0  0  0  0  0  0  0  0  0  0
   -6.2805   -3.4837   13.3942 H   0  0  0  0  0  0  0  0  0  0  0  0
   -5.9038   -5.1578   13.7553 H   0  0  0  0  0  0  0  0  0  0  0  0
   -3.8408   -3.8755   13.0976 H   0  0  0  0  0  0  0  0  0  0  0  0
   -3.7264   -4.5315   14.7202 H   0  0  0  0  0  0  0  0  0  0  0  0
   -4.4085   -1.6510   13.9680 H   0  0  0  0  0  0  0  0  0  0  0  0
   -4.6501   -1.2085   16.3760 H   0  0  0  0  0  0  0  0  0  0  0  0
   -4.2346   -2.8646   16.7675 H   0  0  0  0  0  0  0  0  0  0  0  0
   -6.7408   -1.9682   15.2574 H   0  0  0  0  0  0  0  0  0  0  0  0
   -6.6781   -2.6070   16.8893 H   0  0  0  0  0  0  0  0  0  0  0  0
   -2.1988   -3.6577   16.2587 H   0  0  0  0  0  0  0  0  0  0  0  0
    0.1892   -3.2031   16.5076 H   0  0  0  0  0  0  0  0  0  0  0  0
    1.9651   -1.8647   16.1167 H   0  0  0  0  0  0  0  0  0  0  0  0
    5.1809    1.9629   13.3422 H   0  0  0  0  0  0  0  0  0  0  0  0
    6.7856    0.9487   15.2757 H   0  0  0  0  0  0  0  0  0  0  0  0
    6.2292   -0.7937   17.3519 H   0  0  0  0  0  0  0  0  0  0  0  0
    4.5884    2.3469   11.2223 H   0  0  0  0  0  0  0  0  0  0  0  0
    3.8528    3.8060    9.3832 H   0  0  0  0  0  0  0  0  0  0  0  0
    1.3017    5.1139    8.2368 H   0  0  0  0  0  0  0  0  0  0  0  0
   -1.2272    3.7941   11.0903 H   0  0  0  0  0  0  0  0  0  0  0  0
    0.5743    2.2194   12.8032 H   0  0  0  0  0  0  0  0  0  0  0  0
   -0.1159   -0.0226   13.6276 H   0  0  0  0  0  0  0  0  0  0  0  0
   -2.5226   -0.4866   13.3791 H   0  0  0  0  0  0  0  0  0  0  0  0
  1  2  1  0  0  0  0
  1  6  1  0  0  0  0
  1 32  1  0  0  0  0
  1 33  1  0  0  0  0
  2  3  1  0  0  0  0
  2 34  1  0  0  0  0
  2 35  1  0  0  0  0
  3  4  1  0  0  0  0
  3  7  1  0  0  0  0
  3 36  1  0  0  0  0
  4  5  1  0  0  0  0
  4 37  1  0  0  0  0
  4 38  1  0  0  0  0
  5  6  1  0  0  0  0
  5 39  1  0  0  0  0
  5 40  1  0  0  0  0
  7  8  2  0  0  0  0
  7 31  1  0  0  0  0
  8  9  1  0  0  0  0
  8 41  1  0  0  0  0
  9 10  2  0  0  0  0
  9 42  1  0  0  0  0
 10 11  1  0  0  0  0
 10 30  1  0  0  0  0
 11 12  1  0  0  0  0
 11 43  1  0  0  0  0
 12 13  2  0  0  0  0
 12 20  1  0  0  0  0
 13 14  1  0  0  0  0
 14 15  2  0  0  0  0
 14 21  1  0  0  0  0
 15 16  1  0  0  0  0
 15 44  1  0  0  0  0
 16 17  1  0  0  0  0
 16 20  1  0  0  0  0
 17 18  2  0  0  0  0
 17 45  1  0  0  0  0
 18 19  1  0  0  0  0
 18 46  1  0  0  0  0
 19 20  2  0  0  0  0
 21 22  2  0  0  0  0
 21 29  1  0  0  0  0
 22 23  1  0  0  0  0
 22 47  1  0  0  0  0
 23 24  2  0  0  0  0
 23 48  1  0  0  0  0
 24 25  1  0  0  0  0
 24 28  1  0  0  0  0
 25 26  2  0  0  0  0
 25 49  1  0  0  0  0
 26 27  1  0  0  0  0
 27 28  1  0  0  0  0
 27 50  1  0  0  0  0
 28 29  2  0  0  0  0
 29 51  1  0  0  0  0
 30 31  2  0  0  0  0
 30 52  1  0  0  0  0
 31 53  1  0  0  0  0
M  END
>  <IC50[nM]>
3.8

$$$$
