@<TRIPOS>MOLECULE
CHEMBL3265015
 51 54 0 0 0
SMALL
GASTEIGER
****
Structure written by MMmdl.
@<TRIPOS>ATOM
      1 C          -4.2658   -3.1175   13.5713 C.3     1  LIG1        0.0790
      2 O          -3.8897   -2.4164   14.7436 O.3     1  LIG1       -0.4915
      3 C          -2.5439   -2.1718   14.8418 C.ar    1  LIG1        0.1616
      4 C          -1.7693   -2.9126   15.7244 C.ar    1  LIG1       -0.0146
      5 C          -0.4086   -2.6509   15.8610 C.ar    1  LIG1       -0.0368
      6 C           0.2048   -1.6479   15.1096 C.ar    1  LIG1        0.0362
      7 N           1.6017   -1.4006   15.3489 N.pl3   1  LIG1       -0.2964
      8 C           2.5425   -0.4814   14.7772 C.ar    1  LIG1        0.1669
      9 N           2.1966    0.3306   13.7372 N.ar    1  LIG1       -0.2267
     10 C           3.1151    1.2253   13.2359 C.ar    1  LIG1        0.0899
     11 C           4.4125    1.2753   13.7158 C.ar    1  LIG1        0.0373
     12 N           4.7468    0.4823   14.7726 N.ar    1  LIG1       -0.3018
     13 C           5.9017    0.3875   15.4968 C.ar    1  LIG1        0.0294
     14 C           5.6113   -0.5378   16.5263 C.ar    1  LIG1        0.0465
     15 N           4.3968   -1.0589   16.3854 N.ar    1  LIG1       -0.2330
     16 C           3.8461   -0.4133   15.3411 C.ar    1  LIG1        0.1784
     17 C           2.6468    2.1713   12.1254 C.ar    1  LIG1        0.0048
     18 C           1.2968    2.6023   12.0851 C.ar    1  LIG1       -0.0516
     19 C           0.8699    3.4876   11.0892 C.ar    1  LIG1       -0.0490
     20 C           1.7721    3.9706   10.1365 C.ar    1  LIG1        0.0368
     21 C           3.0808    3.5379   10.1569 C.ar    1  LIG1       -0.0461
     22 C           3.5135    2.6334   11.0944 C.ar    1  LIG1       -0.0405
     23 C           4.9035    2.1468   10.9601 C.3     1  LIG1       -0.0391
     24 C           1.3475    4.9212    9.0657 C.2     1  LIG1        0.2415
     25 O           0.1679    5.0957    8.8335 O.2     1  LIG1       -0.2704
     26 N           2.3260    5.5415    8.3940 N.am    1  LIG1       -0.3253
     27 C          -0.5697   -0.9333   14.1871 C.ar    1  LIG1        0.0049
     28 C          -1.9604   -1.1834   14.0595 C.ar    1  LIG1        0.1632
     29 O          -2.7686   -0.4755   13.1689 O.3     1  LIG1       -0.4914
     30 C          -2.2961    0.5699   12.3655 C.3     1  LIG1        0.0790
     31 H          -5.3441   -3.2619   13.5806 H       1  LIG1        0.0660
     32 H          -3.7878   -4.0957   13.5514 H       1  LIG1        0.0660
     33 H          -4.0115   -2.5871   12.6508 H       1  LIG1        0.0660
     34 H          -2.2259   -3.6928   16.3199 H       1  LIG1        0.0656
     35 H           0.1739   -3.2287   16.5652 H       1  LIG1        0.0637
     36 H           1.9820   -1.9375   16.1133 H       1  LIG1        0.1537
     37 H           5.1700    1.9545   13.3487 H       1  LIG1        0.0835
     38 H           6.7839    0.9785   15.2881 H       1  LIG1        0.0829
     39 H           6.2593   -0.8148   17.3315 H       1  LIG1        0.0845
     40 H           0.5957    2.2582   12.8300 H       1  LIG1        0.0624
     41 H          -0.1662    3.8085   11.0690 H       1  LIG1        0.0625
     42 H           3.7700    3.8907    9.4150 H       1  LIG1        0.0628
     43 H           5.2620    2.3460   11.8705 H       1  LIG1        0.0278
     44 H           5.3949    2.8482   10.3208 H       1  LIG1        0.0278
     45 H           5.0504    1.1199   10.6395 H       1  LIG1        0.0278
     46 H           2.1194    6.2002    7.6574 H       1  LIG1        0.1453
     47 H           3.2889    5.3426    8.6184 H       1  LIG1        0.1453
     48 H          -0.1342   -0.2419   13.6061 H       1  LIG1        0.0674
     49 H          -3.0776    1.0040   11.7462 H       1  LIG1        0.0660
     50 H          -1.4823    0.2640   11.7134 H       1  LIG1        0.0660
     51 H          -2.0380    1.3248   13.0744 H       1  LIG1        0.0660
@<TRIPOS>BOND
     1     1     2    1
     2     1    31    1
     3     1    32    1
     4     1    33    1
     5     2     3    1
     6     3     4   ar
     7     3    28   ar
     8     4     5   ar
     9     4    34    1
    10     5     6   ar
    11     5    35    1
    12     6     7    1
    13     6    27   ar
    14     7     8    1
    15     7    36    1
    16     8     9   ar
    17     8    16   ar
    18     9    10   ar
    19    10    11   ar
    20    10    17    1
    21    11    12   ar
    22    11    37    1
    23    12    13   ar
    24    12    16   ar
    25    13    14   ar
    26    13    38    1
    27    14    15   ar
    28    14    39    1
    29    15    16   ar
    30    17    18   ar
    31    17    22   ar
    32    18    19   ar
    33    18    40    1
    34    19    20   ar
    35    19    41    1
    36    20    21   ar
    37    20    24    1
    38    21    22   ar
    39    21    42    1
    40    22    23    1
    41    23    43    1
    42    23    44    1
    43    23    45    1
    44    24    25    2
    45    24    26   am
    46    26    46    1
    47    26    47    1
    48    27    28   ar
    49    27    48    1
    50    28    29    1
    51    29    30    1
    52    30    49    1
    53    30    50    1
    54    30    51    1
