@<TRIPOS>MOLECULE
CHEMBL3265025
 50 54 0 0 0
SMALL
GASTEIGER
****
Structure written by MMmdl.
@<TRIPOS>ATOM
      1 C          -4.2554   -3.1070   13.5667 C.3     1  LIG1        0.0790
      2 O          -3.8739   -2.3555   14.7096 O.3     1  LIG1       -0.4915
      3 C          -2.5267   -2.1066   14.8132 C.ar    1  LIG1        0.1616
      4 C          -1.7520   -2.8715   15.6749 C.ar    1  LIG1       -0.0146
      5 C          -0.3933   -2.6145   15.8117 C.ar    1  LIG1       -0.0368
      6 C           0.2196   -1.5878   15.0897 C.ar    1  LIG1        0.0362
      7 N           1.6042   -1.3666   15.3298 N.pl3   1  LIG1       -0.2964
      8 C           2.5249   -0.4338   14.7828 C.ar    1  LIG1        0.1669
      9 N           2.1518    0.4044   13.7691 N.ar    1  LIG1       -0.2267
     10 C           3.0983    1.2388   13.2332 C.ar    1  LIG1        0.0898
     11 C           4.4000    1.2764   13.7009 C.ar    1  LIG1        0.0373
     12 N           4.7368    0.4928   14.7596 N.ar    1  LIG1       -0.3018
     13 C           5.8926    0.3911   15.4808 C.ar    1  LIG1        0.0294
     14 C           5.6027   -0.5483   16.5053 C.ar    1  LIG1        0.0465
     15 N           4.3885   -1.0602   16.3544 N.ar    1  LIG1       -0.2330
     16 C           3.8325   -0.3883   15.3309 C.ar    1  LIG1        0.1784
     17 C           2.6407    2.1399   12.1271 C.ar    1  LIG1        0.0054
     18 C           3.5584    2.6399   11.1674 C.ar    1  LIG1       -0.0505
     19 C           3.1117    3.4654   10.1220 C.ar    1  LIG1       -0.0363
     20 C           1.7626    3.8038   10.0403 C.ar    1  LIG1        0.0757
     21 N           1.2975    4.6116    9.0072 N.am    1  LIG1       -0.2798
     22 C          -0.0065    4.8513    8.7182 C.2     1  LIG1        0.2549
     23 O          -0.4123    5.6311    7.8553 O.2     1  LIG1       -0.2717
     24 C          -0.9274    3.9668    9.6249 C.3     1  LIG1        0.1656
     25 O          -0.4391    3.7019   10.9584 O.3     1  LIG1       -0.4809
     26 C           0.8806    3.3365   10.9991 C.ar    1  LIG1        0.1429
     27 C           1.2955    2.5129   12.0280 C.ar    1  LIG1       -0.0088
     28 C          -0.5548   -0.8136   14.1938 C.ar    1  LIG1        0.0049
     29 C          -1.9407   -1.0774   14.0650 C.ar    1  LIG1        0.1632
     30 O          -2.7433   -0.3209   13.2263 O.3     1  LIG1       -0.4914
     31 C          -2.1991    0.3702   12.1141 C.3     1  LIG1        0.0790
     32 H          -5.3362   -3.2511   13.5814 H       1  LIG1        0.0660
     33 H          -3.7862   -4.0919   13.5584 H       1  LIG1        0.0660
     34 H          -4.0024   -2.5902   12.6400 H       1  LIG1        0.0660
     35 H          -2.2087   -3.6617   16.2534 H       1  LIG1        0.0656
     36 H           0.1948   -3.2083   16.4987 H       1  LIG1        0.0637
     37 H           1.9997   -1.9671   16.0417 H       1  LIG1        0.1537
     38 H           5.1597    1.9397   13.3158 H       1  LIG1        0.0835
     39 H           6.7704    0.9889   15.2738 H       1  LIG1        0.0829
     40 H           6.2524   -0.8465   17.3109 H       1  LIG1        0.0845
     41 H           4.6017    2.3682   11.2211 H       1  LIG1        0.0625
     42 H           3.8116    3.8283    9.3793 H       1  LIG1        0.0637
     43 H           1.9664    5.0550    8.3957 H       1  LIG1        0.1550
     44 H          -1.0255    3.0007    9.1213 H       1  LIG1        0.0795
     45 H          -1.9053    4.4356    9.6360 H       1  LIG1        0.0795
     46 H           0.5824    2.1742   12.7618 H       1  LIG1        0.0661
     47 H          -0.1140   -0.0195   13.6280 H       1  LIG1        0.0674
     48 H          -3.0255    0.8261   11.5653 H       1  LIG1        0.0660
     49 H          -1.6971   -0.3166   11.4335 H       1  LIG1        0.0660
     50 H          -1.5230    1.1664   12.4132 H       1  LIG1        0.0660
@<TRIPOS>BOND
     1     1     2    1
     2     1    32    1
     3     1    33    1
     4     1    34    1
     5     2     3    1
     6     3     4   ar
     7     3    29   ar
     8     4     5   ar
     9     4    35    1
    10     5     6   ar
    11     5    36    1
    12     6     7    1
    13     6    28   ar
    14     7     8    1
    15     7    37    1
    16     8     9   ar
    17     8    16   ar
    18     9    10   ar
    19    10    11   ar
    20    10    17    1
    21    11    12   ar
    22    11    38    1
    23    12    13   ar
    24    12    16   ar
    25    13    14   ar
    26    13    39    1
    27    14    15   ar
    28    14    40    1
    29    15    16   ar
    30    17    18   ar
    31    17    27   ar
    32    18    19   ar
    33    18    41    1
    34    19    20   ar
    35    19    42    1
    36    20    21    1
    37    20    26   ar
    38    21    22   am
    39    21    43    1
    40    22    23    2
    41    22    24    1
    42    24    25    1
    43    24    44    1
    44    24    45    1
    45    25    26    1
    46    26    27   ar
    47    27    46    1
    48    28    29   ar
    49    28    47    1
    50    29    30    1
    51    30    31    1
    52    31    48    1
    53    31    49    1
    54    31    50    1
