@<TRIPOS>MOLECULE
CHEMBL3265006
 51 54 0 0 0
SMALL
GASTEIGER
****
Structure written by MMmdl.
@<TRIPOS>ATOM
      1 C          -2.4212    4.6361   12.3150 C.3     1  LIG1        0.0004
      2 N          -1.0554    4.1831   12.0682 N.am    1  LIG1       -0.3144
      3 C          -0.5783    3.7648   10.8955 C.2     1  LIG1        0.2439
      4 O          -1.2609    3.7178    9.8765 O.2     1  LIG1       -0.2702
      5 C           0.8660    3.3707   10.9895 C.ar    1  LIG1        0.0373
      6 C           1.7879    3.8078   10.0318 C.ar    1  LIG1       -0.0496
      7 C           3.1294    3.4499   10.1277 C.ar    1  LIG1       -0.0604
      8 C           3.5566    2.6280   11.1666 C.ar    1  LIG1       -0.0525
      9 C           2.6564    2.1560   12.1340 C.ar    1  LIG1        0.0026
     10 C           1.3140    2.5576   12.0419 C.ar    1  LIG1       -0.0404
     11 C           3.1227    1.2406   13.2181 C.ar    1  LIG1        0.0897
     12 C           4.4207    1.3039   13.7175 C.ar    1  LIG1        0.0373
     13 N           4.7482    0.4921   14.7654 N.ar    1  LIG1       -0.3018
     14 C           5.8898    0.3836   15.5035 C.ar    1  LIG1        0.0294
     15 C           5.5715   -0.5089   16.5177 C.ar    1  LIG1        0.0465
     16 N           4.3818   -1.0543   16.3920 N.ar    1  LIG1       -0.2330
     17 C           3.8330   -0.4170   15.3252 C.ar    1  LIG1        0.1784
     18 C           2.5452   -0.4689   14.7536 C.ar    1  LIG1        0.1669
     19 N           1.5930   -1.3491   15.3060 N.pl3   1  LIG1       -0.2964
     20 C           0.2220   -1.5829   15.0890 C.ar    1  LIG1        0.0362
     21 C          -0.3863   -2.6106   15.8150 C.ar    1  LIG1       -0.0368
     22 C          -1.7497   -2.8673   15.6804 C.ar    1  LIG1       -0.0146
     23 C          -2.5261   -2.1057   14.8053 C.ar    1  LIG1        0.1616
     24 O          -3.8740   -2.3535   14.7166 O.3     1  LIG1       -0.4915
     25 C          -4.2555   -3.1029   13.5707 C.3     1  LIG1        0.0790
     26 C          -1.9389   -1.0760   14.0580 C.ar    1  LIG1        0.1632
     27 O          -2.6991   -0.3052   13.2022 O.3     1  LIG1       -0.4914
     28 C          -2.0020    0.6747   12.5251 C.3     1  LIG1        0.0790
     29 C          -0.5664   -0.8256   14.2115 C.ar    1  LIG1        0.0049
     30 N           2.2178    0.3551   13.7190 N.ar    1  LIG1       -0.2267
     31 H          -2.5270    4.9174   13.3627 H       1  LIG1        0.0426
     32 H          -3.1185    3.8312   12.0826 H       1  LIG1        0.0426
     33 H          -2.6378    5.4979   11.6837 H       1  LIG1        0.0426
     34 H          -0.5302    4.2377   12.9293 H       1  LIG1        0.1487
     35 H           1.4564    4.4350    9.2166 H       1  LIG1        0.0625
     36 H           3.8342    3.7939    9.3845 H       1  LIG1        0.0618
     37 H           4.5934    2.3309   11.2002 H       1  LIG1        0.0624
     38 H           0.6053    2.2130   12.7810 H       1  LIG1        0.0632
     39 H           5.1701    2.0030   13.3719 H       1  LIG1        0.0835
     40 H           6.7656    0.9739   15.2897 H       1  LIG1        0.0829
     41 H           6.2089   -0.8330   17.3301 H       1  LIG1        0.0845
     42 H           2.0245   -1.8853   16.0480 H       1  LIG1        0.1537
     43 H           0.1911   -3.2101   16.5029 H       1  LIG1        0.0637
     44 H          -2.2100   -3.6528   16.2607 H       1  LIG1        0.0656
     45 H          -4.0223   -2.5652   12.6508 H       1  LIG1        0.0660
     46 H          -5.3298   -3.2850   13.5913 H       1  LIG1        0.0660
     47 H          -3.7492   -4.0689   13.5480 H       1  LIG1        0.0660
     48 H          -2.6852    1.2258   11.8788 H       1  LIG1        0.0660
     49 H          -1.2219    0.2131   11.9198 H       1  LIG1        0.0660
     50 H          -1.5484    1.3591   13.2420 H       1  LIG1        0.0660
     51 H          -0.1547   -0.0168   13.6337 H       1  LIG1        0.0674
@<TRIPOS>BOND
     1     1     2    1
     2     1    31    1
     3     1    32    1
     4     1    33    1
     5     2     3   am
     6     2    34    1
     7     3     4    2
     8     3     5    1
     9     5     6   ar
    10     5    10   ar
    11     6     7   ar
    12     6    35    1
    13     7     8   ar
    14     7    36    1
    15     8     9   ar
    16     8    37    1
    17     9    10   ar
    18     9    11    1
    19    10    38    1
    20    11    12   ar
    21    11    30   ar
    22    12    13   ar
    23    12    39    1
    24    13    14   ar
    25    13    17   ar
    26    14    15   ar
    27    14    40    1
    28    15    16   ar
    29    15    41    1
    30    16    17   ar
    31    17    18   ar
    32    18    19    1
    33    18    30   ar
    34    19    20    1
    35    19    42    1
    36    20    21   ar
    37    20    29   ar
    38    21    22   ar
    39    21    43    1
    40    22    23   ar
    41    22    44    1
    42    23    24    1
    43    23    26   ar
    44    24    25    1
    45    25    45    1
    46    25    46    1
    47    25    47    1
    48    26    27    1
    49    26    29   ar
    50    27    28    1
    51    28    48    1
    52    28    49    1
    53    28    50    1
    54    29    51    1
