@<TRIPOS>MOLECULE
CHEMBL3265020
 48 52 0 0 0
SMALL
GASTEIGER
****
Structure written by MMmdl.
@<TRIPOS>ATOM
      1 C          -4.2567   -3.1041   13.5694 C.3     1  LIG1        0.0790
      2 O          -3.8737   -2.3598   14.7157 O.3     1  LIG1       -0.4915
      3 C          -2.5259   -2.1106   14.8172 C.ar    1  LIG1        0.1616
      4 C          -1.7455   -2.8698   15.6821 C.ar    1  LIG1       -0.0146
      5 C          -0.3904   -2.6103   15.8138 C.ar    1  LIG1       -0.0368
      6 C           0.2204   -1.5845   15.0865 C.ar    1  LIG1        0.0362
      7 N           1.6043   -1.3599   15.3203 N.pl3   1  LIG1       -0.2964
      8 C           2.5377   -0.4463   14.7588 C.ar    1  LIG1        0.1669
      9 N           2.1842    0.3709   13.7215 N.ar    1  LIG1       -0.2267
     10 C           3.1172    1.2388   13.2173 C.ar    1  LIG1        0.0897
     11 C           4.4204    1.2848   13.7037 C.ar    1  LIG1        0.0373
     12 N           4.7469    0.4890   14.7614 N.ar    1  LIG1       -0.3018
     13 C           5.8976    0.3763   15.4868 C.ar    1  LIG1        0.0294
     14 C           5.5864   -0.5217   16.5304 C.ar    1  LIG1        0.0465
     15 N           4.3754   -1.0422   16.3738 N.ar    1  LIG1       -0.2330
     16 C           3.8369   -0.3917   15.3265 C.ar    1  LIG1        0.1784
     17 C           2.6436    2.1633   12.1173 C.ar    1  LIG1        0.0025
     18 C           3.5480    2.6409   11.1599 C.ar    1  LIG1       -0.0505
     19 C           3.1566    3.4683   10.0981 C.ar    1  LIG1       -0.0372
     20 C           1.8094    3.8079   10.0262 C.ar    1  LIG1        0.0465
     21 N           1.1129    4.5678    9.1158 N.ar    1  LIG1       -0.3606
     22 C          -0.1959    4.6369    9.4439 C.ar    1  LIG1        0.0027
     23 C          -0.4233    3.9255   10.6079 C.ar    1  LIG1       -0.0366
     24 C           0.8581    3.3610   11.0052 C.ar    1  LIG1        0.0003
     25 C           1.2923    2.5453   12.0556 C.ar    1  LIG1       -0.0434
     26 C          -0.5553   -0.8190   14.1924 C.ar    1  LIG1        0.0049
     27 C          -1.9451   -1.0886   14.0616 C.ar    1  LIG1        0.1632
     28 O          -2.7542   -0.3572   13.2046 O.3     1  LIG1       -0.4914
     29 C          -2.2337    0.6443   12.3523 C.3     1  LIG1        0.0790
     30 H          -5.3357   -3.2522   13.5867 H       1  LIG1        0.0660
     31 H          -3.7894   -4.0896   13.5592 H       1  LIG1        0.0660
     32 H          -4.0126   -2.5803   12.6439 H       1  LIG1        0.0660
     33 H          -2.1924   -3.6626   16.2629 H       1  LIG1        0.0656
     34 H           0.1988   -3.2075   16.4976 H       1  LIG1        0.0637
     35 H           1.9903   -1.9328   16.0524 H       1  LIG1        0.1537
     36 H           5.1821    1.9636   13.3436 H       1  LIG1        0.0835
     37 H           6.7861    0.9459   15.2758 H       1  LIG1        0.0829
     38 H           6.2270   -0.7893   17.3529 H       1  LIG1        0.0845
     39 H           4.5880    2.3439   11.2255 H       1  LIG1        0.0625
     40 H           3.8575    3.8116    9.3742 H       1  LIG1        0.0638
     41 H           1.4893    5.0309    8.2959 H       1  LIG1        0.1653
     42 H          -0.8811    5.2047    8.8100 H       1  LIG1        0.0807
     43 H          -1.3687    3.8093   11.1106 H       1  LIG1        0.0638
     44 H           0.6011    2.2181   12.8040 H       1  LIG1        0.0631
     45 H          -0.1076   -0.0335   13.6255 H       1  LIG1        0.0674
     46 H          -3.0510    1.0731   11.7700 H       1  LIG1        0.0660
     47 H          -1.5106    0.2345   11.6499 H       1  LIG1        0.0660
     48 H          -1.7825    1.4496   12.9275 H       1  LIG1        0.0660
@<TRIPOS>BOND
     1     1     2    1
     2     1    30    1
     3     1    31    1
     4     1    32    1
     5     2     3    1
     6     3     4   ar
     7     3    27   ar
     8     4     5   ar
     9     4    33    1
    10     5     6   ar
    11     5    34    1
    12     6     7    1
    13     6    26   ar
    14     7     8    1
    15     7    35    1
    16     8     9   ar
    17     8    16   ar
    18     9    10   ar
    19    10    11   ar
    20    10    17    1
    21    11    12   ar
    22    11    36    1
    23    12    13   ar
    24    12    16   ar
    25    13    14   ar
    26    13    37    1
    27    14    15   ar
    28    14    38    1
    29    15    16   ar
    30    17    18   ar
    31    17    25   ar
    32    18    19   ar
    33    18    39    1
    34    19    20   ar
    35    19    40    1
    36    20    21   ar
    37    20    24   ar
    38    21    22   ar
    39    21    41    1
    40    22    23   ar
    41    22    42    1
    42    23    24   ar
    43    23    43    1
    44    24    25   ar
    45    25    44    1
    46    26    27   ar
    47    26    45    1
    48    27    28    1
    49    28    29    1
    50    29    46    1
    51    29    47    1
    52    29    48    1
