CHEMBL3265009
 OpenBabel02152110423D
Structure written by MMmdl.
 51 54  0  0  1  0  0  0  0  0999 V2000
   -4.2555   -3.1029   13.5707 C   0  0  0  0  0  0  0  0  0  0  0  0
   -3.8740   -2.3535   14.7166 O   0  0  0  0  0  0  0  0  0  0  0  0
   -2.5261   -2.1057   14.8053 C   0  0  0  0  0  0  0  0  0  0  0  0
   -1.7497   -2.8673   15.6804 C   0  0  0  0  0  0  0  0  0  0  0  0
   -0.3863   -2.6106   15.8150 C   0  0  0  0  0  0  0  0  0  0  0  0
    0.2220   -1.5829   15.0890 C   0  0  0  0  0  0  0  0  0  0  0  0
    1.5930   -1.3491   15.3060 N   0  0  0  0  0  0  0  0  0  0  0  0
    2.5452   -0.4689   14.7536 C   0  0  0  0  0  0  0  0  0  0  0  0
    2.2178    0.3551   13.7190 N   0  0  0  0  0  0  0  0  0  0  0  0
    3.1227    1.2406   13.2181 C   0  0  0  0  0  0  0  0  0  0  0  0
    4.4207    1.3039   13.7175 C   0  0  0  0  0  0  0  0  0  0  0  0
    4.7482    0.4921   14.7654 N   0  0  0  0  0  0  0  0  0  0  0  0
    5.8898    0.3836   15.5035 C   0  0  0  0  0  0  0  0  0  0  0  0
    5.5715   -0.5089   16.5177 C   0  0  0  0  0  0  0  0  0  0  0  0
    4.3818   -1.0543   16.3920 N   0  0  0  0  0  0  0  0  0  0  0  0
    3.8330   -0.4170   15.3252 C   0  0  0  0  0  0  0  0  0  0  0  0
    2.6564    2.1560   12.1340 C   0  0  0  0  0  0  0  0  0  0  0  0
    3.5566    2.6280   11.1666 C   0  0  0  0  0  0  0  0  0  0  0  0
    3.1294    3.4499   10.1277 C   0  0  0  0  0  0  0  0  0  0  0  0
    1.7879    3.8078   10.0318 C   0  0  0  0  0  0  0  0  0  0  0  0
    1.3278    4.6785    8.9004 C   0  0  0  0  0  0  0  0  0  0  0  0
    0.8660    3.3707   10.9895 C   0  0  0  0  0  0  0  0  0  0  0  0
    1.3140    2.5576   12.0419 C   0  0  0  0  0  0  0  0  0  0  0  0
   -0.5782    3.7649   10.8956 C   0  0  0  0  0  0  0  0  0  0  0  0
   -1.4474    3.1358   10.2993 O   0  0  0  0  0  0  0  0  0  0  0  0
   -0.8250    4.9023   11.5462 N   0  0  0  0  0  0  0  0  0  0  0  0
   -0.5664   -0.8256   14.2115 C   0  0  0  0  0  0  0  0  0  0  0  0
   -1.9389   -1.0760   14.0580 C   0  0  0  0  0  0  0  0  0  0  0  0
   -2.6991   -0.3051   13.2023 O   0  0  0  0  0  0  0  0  0  0  0  0
   -2.0021    0.6747   12.5252 C   0  0  0  0  0  0  0  0  0  0  0  0
   -3.7566   -4.0728   13.5537 H   0  0  0  0  0  0  0  0  0  0  0  0
   -4.0132   -2.5700   12.6504 H   0  0  0  0  0  0  0  0  0  0  0  0
   -5.3313   -3.2764   13.5862 H   0  0  0  0  0  0  0  0  0  0  0  0
   -2.2100   -3.6528   16.2607 H   0  0  0  0  0  0  0  0  0  0  0  0
    0.1911   -3.2101   16.5029 H   0  0  0  0  0  0  0  0  0  0  0  0
    2.0245   -1.8852   16.0481 H   0  0  0  0  0  0  0  0  0  0  0  0
    5.1701    2.0029   13.3719 H   0  0  0  0  0  0  0  0  0  0  0  0
    6.7656    0.9739   15.2896 H   0  0  0  0  0  0  0  0  0  0  0  0
    6.2090   -0.8330   17.3300 H   0  0  0  0  0  0  0  0  0  0  0  0
    4.5935    2.3310   11.2004 H   0  0  0  0  0  0  0  0  0  0  0  0
    3.8342    3.7938    9.3845 H   0  0  0  0  0  0  0  0  0  0  0  0
    0.2554    4.8524    8.9886 H   0  0  0  0  0  0  0  0  0  0  0  0
    1.5389    4.1839    7.9522 H   0  0  0  0  0  0  0  0  0  0  0  0
    1.8548    5.6319    8.9381 H   0  0  0  0  0  0  0  0  0  0  0  0
    0.6052    2.2126   12.7809 H   0  0  0  0  0  0  0  0  0  0  0  0
   -1.7254    5.3545   11.6162 H   0  0  0  0  0  0  0  0  0  0  0  0
   -0.1417    5.4508   12.0485 H   0  0  0  0  0  0  0  0  0  0  0  0
   -0.1546   -0.0169   13.6336 H   0  0  0  0  0  0  0  0  0  0  0  0
   -2.6852    1.2258   11.8789 H   0  0  0  0  0  0  0  0  0  0  0  0
   -1.2220    0.2132   11.9198 H   0  0  0  0  0  0  0  0  0  0  0  0
   -1.5484    1.3591   13.2421 H   0  0  0  0  0  0  0  0  0  0  0  0
  1  2  1  0  0  0  0
  1 31  1  0  0  0  0
  1 32  1  0  0  0  0
  1 33  1  0  0  0  0
  2  3  1  0  0  0  0
  3  4  2  0  0  0  0
  3 28  1  0  0  0  0
  4  5  1  0  0  0  0
  4 34  1  0  0  0  0
  5  6  2  0  0  0  0
  5 35  1  0  0  0  0
  6  7  1  0  0  0  0
  6 27  1  0  0  0  0
  7  8  1  0  0  0  0
  7 36  1  0  0  0  0
  8  9  2  0  0  0  0
  8 16  1  0  0  0  0
  9 10  1  0  0  0  0
 10 11  2  0  0  0  0
 10 17  1  0  0  0  0
 11 12  1  0  0  0  0
 11 37  1  0  0  0  0
 12 13  1  0  0  0  0
 12 16  1  0  0  0  0
 13 14  2  0  0  0  0
 13 38  1  0  0  0  0
 14 15  1  0  0  0  0
 14 39  1  0  0  0  0
 15 16  2  0  0  0  0
 17 18  2  0  0  0  0
 17 23  1  0  0  0  0
 18 19  1  0  0  0  0
 18 40  1  0  0  0  0
 19 20  2  0  0  0  0
 19 41  1  0  0  0  0
 20 21  1  0  0  0  0
 20 22  1  0  0  0  0
 21 42  1  0  0  0  0
 21 43  1  0  0  0  0
 21 44  1  0  0  0  0
 22 23  2  0  0  0  0
 22 24  1  0  0  0  0
 23 45  1  0  0  0  0
 24 25  2  0  0  0  0
 24 26  1  0  0  0  0
 26 46  1  0  0  0  0
 26 47  1  0  0  0  0
 27 28  2  0  0  0  0
 27 48  1  0  0  0  0
 28 29  1  0  0  0  0
 29 30  1  0  0  0  0
 30 49  1  0  0  0  0
 30 50  1  0  0  0  0
 30 51  1  0  0  0  0
M  END
>  <IC50[nM]>
28.3

$$$$
