@<TRIPOS>MOLECULE
CHEMBL3265027
 39 43 0 0 0
SMALL
GASTEIGER
****
Structure written by MMmdl.
@<TRIPOS>ATOM
      1 N           1.6124   -1.3917   15.3063 N.pl3   1  LIG1       -0.2965
      2 C           0.2249   -1.5978   15.0814 C.ar    1  LIG1        0.0325
      3 C          -0.5442   -0.8150   14.1982 C.ar    1  LIG1       -0.0405
      4 C          -1.9142   -1.0738   14.0573 C.ar    1  LIG1       -0.0600
      5 C          -2.5121   -2.0998   14.7912 C.ar    1  LIG1       -0.0616
      6 C          -1.7536   -2.8696   15.6610 C.ar    1  LIG1       -0.0600
      7 C          -0.3955   -2.6216   15.8033 C.ar    1  LIG1       -0.0405
      8 C           2.5315   -0.4491   14.7651 C.ar    1  LIG1        0.1669
      9 N           2.1583    0.3961   13.7551 N.ar    1  LIG1       -0.2267
     10 C           3.0948    1.2419   13.2245 C.ar    1  LIG1        0.0897
     11 C           4.4047    1.2813   13.6954 C.ar    1  LIG1        0.0373
     12 N           4.7386    0.4915   14.7531 N.ar    1  LIG1       -0.3018
     13 C           5.8960    0.3859   15.4809 C.ar    1  LIG1        0.0294
     14 C           5.5970   -0.5411   16.5116 C.ar    1  LIG1        0.0465
     15 N           4.3870   -1.0586   16.3541 N.ar    1  LIG1       -0.2330
     16 C           3.8354   -0.3959   15.3220 C.ar    1  LIG1        0.1784
     17 C           2.6241    2.1558   12.1223 C.ar    1  LIG1        0.0039
     18 C           3.5409    2.6448   11.1668 C.ar    1  LIG1       -0.0518
     19 C           3.1526    3.4655   10.1090 C.ar    1  LIG1       -0.0505
     20 C           1.8070    3.8204   10.0137 C.ar    1  LIG1        0.0195
     21 C           0.9973    4.6040    9.1190 C.ar    1  LIG1        0.0569
     22 N          -0.2435    4.6079    9.5202 N.ar    1  LIG1       -0.1812
     23 N          -0.3316    3.8816   10.6309 N.ar    1  LIG1       -0.2769
     24 C           0.8832    3.3484   10.9943 C.ar    1  LIG1        0.0663
     25 C           1.2619    2.5173   12.0545 C.ar    1  LIG1       -0.0271
     26 H           2.0176   -2.0162   15.9915 H       1  LIG1        0.1537
     27 H          -0.1036   -0.0170   13.6342 H       1  LIG1        0.0636
     28 H          -2.5121   -0.4793   13.3847 H       1  LIG1        0.0618
     29 H          -3.5698   -2.2967   14.6864 H       1  LIG1        0.0618
     30 H          -2.2195   -3.6606   16.2340 H       1  LIG1        0.0618
     31 H           0.1884   -3.2203   16.4893 H       1  LIG1        0.0636
     32 H           5.1658    1.9496   13.3207 H       1  LIG1        0.0835
     33 H           6.7756    0.9786   15.2759 H       1  LIG1        0.0829
     34 H           6.2399   -0.8270   17.3309 H       1  LIG1        0.0845
     35 H           4.5780    2.3565   11.2387 H       1  LIG1        0.0624
     36 H           3.8751    3.8096    9.3796 H       1  LIG1        0.0625
     37 H           1.3042    5.1362    8.2332 H       1  LIG1        0.0854
     38 H          -1.2186    3.7731   11.1004 H       1  LIG1        0.1889
     39 H           0.5529    2.1690   12.7938 H       1  LIG1        0.0645
@<TRIPOS>BOND
     1     1     2    1
     2     1     8    1
     3     1    26    1
     4     2     3   ar
     5     2     7   ar
     6     3     4   ar
     7     3    27    1
     8     4     5   ar
     9     4    28    1
    10     5     6   ar
    11     5    29    1
    12     6     7   ar
    13     6    30    1
    14     7    31    1
    15     8     9   ar
    16     8    16   ar
    17     9    10   ar
    18    10    11   ar
    19    10    17    1
    20    11    12   ar
    21    11    32    1
    22    12    13   ar
    23    12    16   ar
    24    13    14   ar
    25    13    33    1
    26    14    15   ar
    27    14    34    1
    28    15    16   ar
    29    17    18   ar
    30    17    25   ar
    31    18    19   ar
    32    18    35    1
    33    19    20   ar
    34    19    36    1
    35    20    21   ar
    36    20    24   ar
    37    21    22   ar
    38    21    37    1
    39    22    23   ar
    40    23    24   ar
    41    23    38    1
    42    24    25   ar
    43    25    39    1
