@<TRIPOS>MOLECULE
CHEMBL3265033
 54 59 0 0 0
SMALL
GASTEIGER
****
Structure written by MMmdl.
@<TRIPOS>ATOM
      1 O          -6.7377   -5.5954   13.7078 O.2     1  LIG1       -0.1743
      2 S          -6.4109   -4.1827   13.9768 S.O2    1  LIG1       -0.0281
      3 O          -7.4853   -3.1691   13.9645 O.2     1  LIG1       -0.1743
      4 C          -5.0718   -3.6553   12.8024 C.3     1  LIG1        0.0814
      5 C          -4.5093   -2.3051   13.2740 C.3     1  LIG1        0.0316
      6 N          -3.8452   -2.4085   14.5766 N.pl3   1  LIG1       -0.3268
      7 C          -4.8019   -2.6733   15.6705 C.3     1  LIG1        0.0316
      8 C          -5.4613   -4.0603   15.5733 C.3     1  LIG1        0.0814
      9 C          -2.5026   -2.1121   14.7721 C.ar    1  LIG1        0.0299
     10 C          -1.7498   -2.8472   15.6821 C.ar    1  LIG1       -0.0389
     11 C          -0.3947   -2.5947   15.8318 C.ar    1  LIG1       -0.0388
     12 C           0.2287   -1.5788   15.1039 C.ar    1  LIG1        0.0326
     13 N           1.6093   -1.3648   15.3339 N.pl3   1  LIG1       -0.2965
     14 C           2.5318   -0.4383   14.7801 C.ar    1  LIG1        0.1669
     15 N           2.1634    0.3921   13.7540 N.ar    1  LIG1       -0.2267
     16 C           3.0974    1.2392   13.2246 C.ar    1  LIG1        0.0897
     17 C           4.4044    1.2817   13.6944 C.ar    1  LIG1        0.0373
     18 N           4.7423    0.4925   14.7592 N.ar    1  LIG1       -0.3018
     19 C           5.8954    0.3870   15.4778 C.ar    1  LIG1        0.0294
     20 C           5.5990   -0.5412   16.5094 C.ar    1  LIG1        0.0465
     21 N           4.3871   -1.0534   16.3565 N.ar    1  LIG1       -0.2330
     22 C           3.8359   -0.3945   15.3234 C.ar    1  LIG1        0.1784
     23 C           2.6253    2.1534   12.1201 C.ar    1  LIG1        0.0039
     24 C           3.5412    2.6427   11.1681 C.ar    1  LIG1       -0.0518
     25 C           3.1527    3.4644   10.1100 C.ar    1  LIG1       -0.0505
     26 C           1.8061    3.8184   10.0146 C.ar    1  LIG1        0.0195
     27 C           0.9967    4.6031    9.1196 C.ar    1  LIG1        0.0569
     28 N          -0.2439    4.6096    9.5190 N.ar    1  LIG1       -0.1812
     29 N          -0.3333    3.8812   10.6311 N.ar    1  LIG1       -0.2769
     30 C           0.8847    3.3487   10.9898 C.ar    1  LIG1        0.0663
     31 C           1.2610    2.5149   12.0531 C.ar    1  LIG1       -0.0271
     32 C          -0.5302   -0.8124   14.2060 C.ar    1  LIG1       -0.0388
     33 C          -1.8875   -1.0872   14.0350 C.ar    1  LIG1       -0.0389
     34 H          -4.2870   -4.4115   12.7932 H       1  LIG1        0.0515
     35 H          -5.5077   -3.5615   11.8091 H       1  LIG1        0.0515
     36 H          -3.7877   -1.9706   12.5239 H       1  LIG1        0.0480
     37 H          -5.3210   -1.5976   13.2696 H       1  LIG1        0.0480
     38 H          -4.3225   -2.5661   16.6462 H       1  LIG1        0.0480
     39 H          -5.5749   -1.8980   15.6876 H       1  LIG1        0.0480
     40 H          -4.6888   -4.8310   15.5950 H       1  LIG1        0.0515
     41 H          -6.1589   -4.2289   16.3924 H       1  LIG1        0.0515
     42 H          -2.2114   -3.6432   16.2513 H       1  LIG1        0.0637
     43 H           0.1860   -3.1935   16.5202 H       1  LIG1        0.0637
     44 H           2.0087   -1.9701   16.0399 H       1  LIG1        0.1537
     45 H           5.1653    1.9492   13.3186 H       1  LIG1        0.0835
     46 H           6.7769    0.9748   15.2739 H       1  LIG1        0.0829
     47 H           6.2430   -0.8293   17.3244 H       1  LIG1        0.0845
     48 H           4.5805    2.3555   11.2394 H       1  LIG1        0.0624
     49 H           3.8720    3.8097    9.3836 H       1  LIG1        0.0625
     50 H           1.3028    5.1343    8.2328 H       1  LIG1        0.0854
     51 H          -1.2191    3.7739   11.0972 H       1  LIG1        0.1889
     52 H           0.5545    2.1699   12.7872 H       1  LIG1        0.0645
     53 H          -0.0886   -0.0159   13.6433 H       1  LIG1        0.0637
     54 H          -2.4699   -0.4961   13.3471 H       1  LIG1        0.0637
@<TRIPOS>BOND
     1     1     2    2
     2     2     3    2
     3     2     4    1
     4     2     8    1
     5     4     5    1
     6     4    34    1
     7     4    35    1
     8     5     6    1
     9     5    36    1
    10     5    37    1
    11     6     7    1
    12     6     9    1
    13     7     8    1
    14     7    38    1
    15     7    39    1
    16     8    40    1
    17     8    41    1
    18     9    10   ar
    19     9    33   ar
    20    10    11   ar
    21    10    42    1
    22    11    12   ar
    23    11    43    1
    24    12    13    1
    25    12    32   ar
    26    13    14    1
    27    13    44    1
    28    14    15   ar
    29    14    22   ar
    30    15    16   ar
    31    16    17   ar
    32    16    23    1
    33    17    18   ar
    34    17    45    1
    35    18    19   ar
    36    18    22   ar
    37    19    20   ar
    38    19    46    1
    39    20    21   ar
    40    20    47    1
    41    21    22   ar
    42    23    24   ar
    43    23    31   ar
    44    24    25   ar
    45    24    48    1
    46    25    26   ar
    47    25    49    1
    48    26    27   ar
    49    26    30   ar
    50    27    28   ar
    51    27    50    1
    52    28    29   ar
    53    29    30   ar
    54    29    51    1
    55    30    31   ar
    56    31    52    1
    57    32    33   ar
    58    32    53    1
    59    33    54    1
