@<TRIPOS>MOLECULE
CHEMBL3265016
 48 52 0 0 0
SMALL
GASTEIGER
****
Structure written by MMmdl.
@<TRIPOS>ATOM
      1 C          -4.2568   -3.1050   13.5687 C.3     1  LIG1        0.0790
      2 O          -3.8730   -2.3616   14.7152 O.3     1  LIG1       -0.4915
      3 C          -2.5250   -2.1116   14.8158 C.ar    1  LIG1        0.1616
      4 C          -1.7470   -2.8700   15.6807 C.ar    1  LIG1       -0.0146
      5 C          -0.3902   -2.6106   15.8144 C.ar    1  LIG1       -0.0368
      6 C           0.2207   -1.5844   15.0868 C.ar    1  LIG1        0.0362
      7 N           1.6046   -1.3596   15.3257 N.pl3   1  LIG1       -0.2964
      8 C           2.5329   -0.4401   14.7638 C.ar    1  LIG1        0.1669
      9 N           2.1751    0.3788   13.7311 N.ar    1  LIG1       -0.2267
     10 C           3.1086    1.2387   13.2176 C.ar    1  LIG1        0.0897
     11 C           4.4159    1.2831   13.6998 C.ar    1  LIG1        0.0373
     12 N           4.7435    0.4926   14.7566 N.ar    1  LIG1       -0.3018
     13 C           5.8975    0.3810   15.4862 C.ar    1  LIG1        0.0294
     14 C           5.5917   -0.5286   16.5249 C.ar    1  LIG1        0.0465
     15 N           4.3780   -1.0408   16.3703 N.ar    1  LIG1       -0.2330
     16 C           3.8370   -0.3906   15.3278 C.ar    1  LIG1        0.1784
     17 C           2.6350    2.1602   12.1213 C.ar    1  LIG1        0.0038
     18 C           3.5425    2.6402   11.1650 C.ar    1  LIG1       -0.0518
     19 C           3.1493    3.4616   10.1117 C.ar    1  LIG1       -0.0520
     20 C           1.8041    3.8212   10.0117 C.ar    1  LIG1       -0.0003
     21 C           1.0219    4.6165    9.0806 C.ar    1  LIG1       -0.0367
     22 C          -0.2682    4.5927    9.5377 C.ar    1  LIG1        0.0027
     23 N          -0.3496    3.8668   10.6667 N.ar    1  LIG1       -0.3606
     24 C           0.8806    3.3533   11.0064 C.ar    1  LIG1        0.0471
     25 C           1.2701    2.5323   12.0703 C.ar    1  LIG1       -0.0286
     26 C          -0.5547   -0.8186   14.1912 C.ar    1  LIG1        0.0049
     27 C          -1.9427   -1.0874   14.0603 C.ar    1  LIG1        0.1632
     28 O          -2.7500   -0.3519   13.2066 O.3     1  LIG1       -0.4914
     29 C          -2.2281    0.6471   12.3512 C.3     1  LIG1        0.0790
     30 H          -5.3362   -3.2528   13.5863 H       1  LIG1        0.0660
     31 H          -3.7878   -4.0896   13.5583 H       1  LIG1        0.0660
     32 H          -4.0115   -2.5819   12.6430 H       1  LIG1        0.0660
     33 H          -2.1984   -3.6612   16.2623 H       1  LIG1        0.0656
     34 H           0.1986   -3.2043   16.5000 H       1  LIG1        0.0637
     35 H           1.9930   -1.9388   16.0550 H       1  LIG1        0.1537
     36 H           5.1768    1.9603   13.3373 H       1  LIG1        0.0835
     37 H           6.7836    0.9581   15.2759 H       1  LIG1        0.0829
     38 H           6.2317   -0.8060   17.3476 H       1  LIG1        0.0845
     39 H           4.5826    2.3470   11.2271 H       1  LIG1        0.0624
     40 H           3.8655    3.8013    9.3845 H       1  LIG1        0.0624
     41 H           1.3655    5.1278    8.2063 H       1  LIG1        0.0638
     42 H          -1.1634    5.0533    9.1382 H       1  LIG1        0.0807
     43 H          -1.2206    3.7428   11.1558 H       1  LIG1        0.1653
     44 H           0.5744    2.1993   12.8125 H       1  LIG1        0.0645
     45 H          -0.1099   -0.0288   13.6231 H       1  LIG1        0.0674
     46 H          -3.0484    1.0726   11.7702 H       1  LIG1        0.0660
     47 H          -1.5061    0.2341   11.6487 H       1  LIG1        0.0660
     48 H          -1.7788    1.4529   12.9278 H       1  LIG1        0.0660
@<TRIPOS>BOND
     1     1     2    1
     2     1    30    1
     3     1    31    1
     4     1    32    1
     5     2     3    1
     6     3     4   ar
     7     3    27   ar
     8     4     5   ar
     9     4    33    1
    10     5     6   ar
    11     5    34    1
    12     6     7    1
    13     6    26   ar
    14     7     8    1
    15     7    35    1
    16     8     9   ar
    17     8    16   ar
    18     9    10   ar
    19    10    11   ar
    20    10    17    1
    21    11    12   ar
    22    11    36    1
    23    12    13   ar
    24    12    16   ar
    25    13    14   ar
    26    13    37    1
    27    14    15   ar
    28    14    38    1
    29    15    16   ar
    30    17    18   ar
    31    17    25   ar
    32    18    19   ar
    33    18    39    1
    34    19    20   ar
    35    19    40    1
    36    20    21   ar
    37    20    24   ar
    38    21    22   ar
    39    21    41    1
    40    22    23   ar
    41    22    42    1
    42    23    24   ar
    43    23    43    1
    44    24    25   ar
    45    25    44    1
    46    26    27   ar
    47    26    45    1
    48    27    28    1
    49    28    29    1
    50    29    46    1
    51    29    47    1
    52    29    48    1
