CHEMBL3265031
 OpenBabel02152110423D
Structure written by MMmdl.
 58 63  0  0  1  0  0  0  0  0999 V2000
   -6.8350   -5.5126   14.3646 C   0  0  0  0  0  0  0  0  0  0  0  0
   -6.2469   -4.1256   14.5196 C   0  0  0  0  0  0  0  0  0  0  0  0
   -7.2986   -3.1815   14.6326 O   0  0  0  0  0  0  0  0  0  0  0  0
   -5.3943   -4.0373   15.7957 C   0  0  0  0  0  0  0  0  0  0  0  0
   -4.6708   -2.7036   15.9246 C   0  0  0  0  0  0  0  0  0  0  0  0
   -3.8604   -2.3511   14.7445 N   0  0  0  0  0  0  0  0  0  0  0  0
   -4.6320   -2.3959   13.4920 C   0  0  0  0  0  0  0  0  0  0  0  0
   -5.3661   -3.7377   13.3163 C   0  0  0  0  0  0  0  0  0  0  0  0
   -2.5090   -2.1078   14.8185 C   0  0  0  0  0  0  0  0  0  0  0  0
   -1.9132   -1.0937   14.0521 C   0  0  0  0  0  0  0  0  0  0  0  0
   -0.5452   -0.8202   14.1949 C   0  0  0  0  0  0  0  0  0  0  0  0
    0.2267   -1.5891   15.0857 C   0  0  0  0  0  0  0  0  0  0  0  0
    1.6093   -1.3706   15.3172 N   0  0  0  0  0  0  0  0  0  0  0  0
    2.5356   -0.4465   14.7610 C   0  0  0  0  0  0  0  0  0  0  0  0
    2.1744    0.3801   13.7331 N   0  0  0  0  0  0  0  0  0  0  0  0
    3.1091    1.2393   13.2182 C   0  0  0  0  0  0  0  0  0  0  0  0
    4.4162    1.2819   13.6993 C   0  0  0  0  0  0  0  0  0  0  0  0
    4.7443    0.4889   14.7568 N   0  0  0  0  0  0  0  0  0  0  0  0
    5.8980    0.3793   15.4854 C   0  0  0  0  0  0  0  0  0  0  0  0
    5.5914   -0.5292   16.5255 C   0  0  0  0  0  0  0  0  0  0  0  0
    4.3788   -1.0451   16.3697 N   0  0  0  0  0  0  0  0  0  0  0  0
    3.8374   -0.3956   15.3255 C   0  0  0  0  0  0  0  0  0  0  0  0
    2.6339    2.1607   12.1207 C   0  0  0  0  0  0  0  0  0  0  0  0
    3.5443    2.6413   11.1620 C   0  0  0  0  0  0  0  0  0  0  0  0
    3.1470    3.4630   10.1086 C   0  0  0  0  0  0  0  0  0  0  0  0
    1.8016    3.8175   10.0163 C   0  0  0  0  0  0  0  0  0  0  0  0
    0.9929    4.5961    9.1183 C   0  0  0  0  0  0  0  0  0  0  0  0
   -0.2479    4.6060    9.5144 N   0  0  0  0  0  0  0  0  0  0  0  0
   -0.3355    3.8922   10.6289 N   0  0  0  0  0  0  0  0  0  0  0  0
    0.8848    3.3596   10.9956 C   0  0  0  0  0  0  0  0  0  0  0  0
    1.2708    2.5377   12.0624 C   0  0  0  0  0  0  0  0  0  0  0  0
   -0.3834   -2.6137   15.8106 C   0  0  0  0  0  0  0  0  0  0  0  0
   -1.7318   -2.8604   15.6854 C   0  0  0  0  0  0  0  0  0  0  0  0
   -6.0467   -6.2631   14.3371 H   0  0  0  0  0  0  0  0  0  0  0  0
   -7.4067   -5.5754   13.4421 H   0  0  0  0  0  0  0  0  0  0  0  0
   -7.4975   -5.7395   15.1969 H   0  0  0  0  0  0  0  0  0  0  0  0
   -7.8476   -3.4517   15.3749 H   0  0  0  0  0  0  0  0  0  0  0  0
   -6.0063   -4.2224   16.6815 H   0  0  0  0  0  0  0  0  0  0  0  0
   -4.6544   -4.8417   15.8115 H   0  0  0  0  0  0  0  0  0  0  0  0
   -4.0494   -2.7060   16.8283 H   0  0  0  0  0  0  0  0  0  0  0  0
   -5.3818   -1.8934   16.0953 H   0  0  0  0  0  0  0  0  0  0  0  0
   -3.9484   -2.2562   12.6532 H   0  0  0  0  0  0  0  0  0  0  0  0
   -5.3571   -1.5966   13.4338 H   0  0  0  0  0  0  0  0  0  0  0  0
   -5.9794   -3.7294   12.4113 H   0  0  0  0  0  0  0  0  0  0  0  0
   -4.6376   -4.5315   13.1300 H   0  0  0  0  0  0  0  0  0  0  0  0
   -2.5174   -0.4949   13.3813 H   0  0  0  0  0  0  0  0  0  0  0  0
   -0.1094   -0.0194   13.6338 H   0  0  0  0  0  0  0  0  0  0  0  0
    2.0065   -1.9728   16.0216 H   0  0  0  0  0  0  0  0  0  0  0  0
    5.1781    1.9583   13.3366 H   0  0  0  0  0  0  0  0  0  0  0  0
    6.7839    0.9561   15.2754 H   0  0  0  0  0  0  0  0  0  0  0  0
    6.2312   -0.8046   17.3482 H   0  0  0  0  0  0  0  0  0  0  0  0
    4.5843    2.3478   11.2246 H   0  0  0  0  0  0  0  0  0  0  0  0
    3.8596    3.8053    9.3796 H   0  0  0  0  0  0  0  0  0  0  0  0
    1.3020    5.1188    8.2316 H   0  0  0  0  0  0  0  0  0  0  0  0
   -1.2247    3.7893   11.0947 H   0  0  0  0  0  0  0  0  0  0  0  0
    0.5687    2.2070   12.8051 H   0  0  0  0  0  0  0  0  0  0  0  0
    0.2004   -3.2162   16.4903 H   0  0  0  0  0  0  0  0  0  0  0  0
   -2.1848   -3.6574   16.2613 H   0  0  0  0  0  0  0  0  0  0  0  0
  1  2  1  0  0  0  0
  1 34  1  0  0  0  0
  1 35  1  0  0  0  0
  1 36  1  0  0  0  0
  2  3  1  0  0  0  0
  2  4  1  0  0  0  0
  2  8  1  0  0  0  0
  3 37  1  0  0  0  0
  4  5  1  0  0  0  0
  4 38  1  0  0  0  0
  4 39  1  0  0  0  0
  5  6  1  0  0  0  0
  5 40  1  0  0  0  0
  5 41  1  0  0  0  0
  6  7  1  0  0  0  0
  6  9  1  0  0  0  0
  7  8  1  0  0  0  0
  7 42  1  0  0  0  0
  7 43  1  0  0  0  0
  8 44  1  0  0  0  0
  8 45  1  0  0  0  0
  9 10  2  0  0  0  0
  9 33  1  0  0  0  0
 10 11  1  0  0  0  0
 10 46  1  0  0  0  0
 11 12  2  0  0  0  0
 11 47  1  0  0  0  0
 12 13  1  0  0  0  0
 12 32  1  0  0  0  0
 13 14  1  0  0  0  0
 13 48  1  0  0  0  0
 14 15  2  0  0  0  0
 14 22  1  0  0  0  0
 15 16  1  0  0  0  0
 16 17  2  0  0  0  0
 16 23  1  0  0  0  0
 17 18  1  0  0  0  0
 17 49  1  0  0  0  0
 18 19  1  0  0  0  0
 18 22  1  0  0  0  0
 19 20  2  0  0  0  0
 19 50  1  0  0  0  0
 20 21  1  0  0  0  0
 20 51  1  0  0  0  0
 21 22  2  0  0  0  0
 23 24  2  0  0  0  0
 23 31  1  0  0  0  0
 24 25  1  0  0  0  0
 24 52  1  0  0  0  0
 25 26  2  0  0  0  0
 25 53  1  0  0  0  0
 26 27  1  0  0  0  0
 26 30  1  0  0  0  0
 27 28  2  0  0  0  0
 27 54  1  0  0  0  0
 28 29  1  0  0  0  0
 29 30  1  0  0  0  0
 29 55  1  0  0  0  0
 30 31  2  0  0  0  0
 31 56  1  0  0  0  0
 32 33  2  0  0  0  0
 32 57  1  0  0  0  0
 33 58  1  0  0  0  0
M  END
>  <IC50[nM]>
1.4

$$$$
