@<TRIPOS>MOLECULE
CHEMBL3265021
 47 51 0 0 0
SMALL
GASTEIGER
****
Structure written by MMmdl.
@<TRIPOS>ATOM
      1 C          -4.2567   -3.1041   13.5694 C.3     1  LIG1        0.0790
      2 O          -3.8737   -2.3599   14.7156 O.3     1  LIG1       -0.4915
      3 C          -2.5258   -2.1107   14.8171 C.ar    1  LIG1        0.1616
      4 C          -1.7454   -2.8698   15.6820 C.ar    1  LIG1       -0.0146
      5 C          -0.3904   -2.6103   15.8138 C.ar    1  LIG1       -0.0368
      6 C           0.2204   -1.5845   15.0865 C.ar    1  LIG1        0.0362
      7 N           1.6042   -1.3599   15.3206 N.pl3   1  LIG1       -0.2964
      8 C           2.5373   -0.4464   14.7592 C.ar    1  LIG1        0.1669
      9 N           2.1833    0.3714   13.7220 N.ar    1  LIG1       -0.2267
     10 C           3.1157    1.2390   13.2179 C.ar    1  LIG1        0.0897
     11 C           4.4197    1.2848   13.7036 C.ar    1  LIG1        0.0373
     12 N           4.7466    0.4890   14.7613 N.ar    1  LIG1       -0.3018
     13 C           5.8976    0.3767   15.4867 C.ar    1  LIG1        0.0294
     14 C           5.5868   -0.5220   16.5302 C.ar    1  LIG1        0.0465
     15 N           4.3755   -1.0422   16.3738 N.ar    1  LIG1       -0.2330
     16 C           3.8369   -0.3923   15.3263 C.ar    1  LIG1        0.1784
     17 C           2.6420    2.1628   12.1182 C.ar    1  LIG1        0.0026
     18 C           3.5476    2.6405   11.1603 C.ar    1  LIG1       -0.0505
     19 C           3.1538    3.4680   10.0985 C.ar    1  LIG1       -0.0357
     20 C           1.8053    3.8044   10.0318 C.ar    1  LIG1        0.0658
     21 N           1.0883    4.5643    9.1320 N.ar    1  LIG1       -0.2770
     22 N          -0.2025    4.6328    9.4561 N.ar    1  LIG1       -0.1812
     23 C          -0.3779    3.9489   10.5598 C.ar    1  LIG1        0.0569
     24 C           0.8670    3.3654   10.9941 C.ar    1  LIG1        0.0201
     25 C           1.2880    2.5471   12.0527 C.ar    1  LIG1       -0.0418
     26 C          -0.5552   -0.8189   14.1923 C.ar    1  LIG1        0.0049
     27 C          -1.9451   -1.0886   14.0616 C.ar    1  LIG1        0.1632
     28 O          -2.7540   -0.3570   13.2047 O.3     1  LIG1       -0.4914
     29 C          -2.2335    0.6444   12.3522 C.3     1  LIG1        0.0790
     30 H          -5.3357   -3.2522   13.5867 H       1  LIG1        0.0660
     31 H          -3.7893   -4.0896   13.5592 H       1  LIG1        0.0660
     32 H          -4.0126   -2.5804   12.6439 H       1  LIG1        0.0660
     33 H          -2.1927   -3.6625   16.2629 H       1  LIG1        0.0656
     34 H           0.1988   -3.2074   16.4977 H       1  LIG1        0.0637
     35 H           1.9904   -1.9330   16.0525 H       1  LIG1        0.1537
     36 H           5.1817    1.9635   13.3434 H       1  LIG1        0.0835
     37 H           6.7861    0.9464   15.2759 H       1  LIG1        0.0829
     38 H           6.2273   -0.7901   17.3528 H       1  LIG1        0.0845
     39 H           4.5880    2.3444   11.2252 H       1  LIG1        0.0625
     40 H           3.8539    3.8134    9.3727 H       1  LIG1        0.0639
     41 H           1.4372    5.0378    8.3060 H       1  LIG1        0.1889
     42 H          -1.3472    3.8635   11.0272 H       1  LIG1        0.0854
     43 H           0.5928    2.2220   12.7999 H       1  LIG1        0.0631
     44 H          -0.1077   -0.0333   13.6254 H       1  LIG1        0.0674
     45 H          -3.0510    1.0731   11.7700 H       1  LIG1        0.0660
     46 H          -1.5105    0.2345   11.6498 H       1  LIG1        0.0660
     47 H          -1.7824    1.4497   12.9275 H       1  LIG1        0.0660
@<TRIPOS>BOND
     1     1     2    1
     2     1    30    1
     3     1    31    1
     4     1    32    1
     5     2     3    1
     6     3     4   ar
     7     3    27   ar
     8     4     5   ar
     9     4    33    1
    10     5     6   ar
    11     5    34    1
    12     6     7    1
    13     6    26   ar
    14     7     8    1
    15     7    35    1
    16     8     9   ar
    17     8    16   ar
    18     9    10   ar
    19    10    11   ar
    20    10    17    1
    21    11    12   ar
    22    11    36    1
    23    12    13   ar
    24    12    16   ar
    25    13    14   ar
    26    13    37    1
    27    14    15   ar
    28    14    38    1
    29    15    16   ar
    30    17    18   ar
    31    17    25   ar
    32    18    19   ar
    33    18    39    1
    34    19    20   ar
    35    19    40    1
    36    20    21   ar
    37    20    24   ar
    38    21    22   ar
    39    21    41    1
    40    22    23   ar
    41    23    24   ar
    42    23    42    1
    43    24    25   ar
    44    25    43    1
    45    26    27   ar
    46    26    44    1
    47    27    28    1
    48    28    29    1
    49    29    45    1
    50    29    46    1
    51    29    47    1
