CHEMBL3265035
 OpenBabel02152110423D
Structure written by MMmdl.
 51 55  0  0  1  0  0  0  0  0999 V2000
   -4.5368   -3.3612   15.6406 C   0  0  0  0  0  0  0  0  0  0  0  0
   -3.9561   -2.3810   14.7221 N   0  0  0  0  0  0  0  0  0  0  0  0
   -4.6759   -2.0519   13.4970 C   0  0  0  0  0  0  0  0  0  0  0  0
   -4.8094   -3.1968   12.4731 C   0  0  0  0  0  0  0  0  0  0  0  0
   -5.3909   -2.7945   11.2538 O   0  0  0  0  0  0  0  0  0  0  0  0
   -2.5380   -2.1167   14.8106 C   0  0  0  0  0  0  0  0  0  0  0  0
   -1.9279   -1.0927   14.0460 C   0  0  0  0  0  0  0  0  0  0  0  0
   -0.5515   -0.8247   14.1929 C   0  0  0  0  0  0  0  0  0  0  0  0
    0.2181   -1.5869   15.0916 C   0  0  0  0  0  0  0  0  0  0  0  0
    1.6005   -1.3598   15.3303 N   0  0  0  0  0  0  0  0  0  0  0  0
    2.5326   -0.4516   14.7667 C   0  0  0  0  0  0  0  0  0  0  0  0
    2.1715    0.3794   13.7341 N   0  0  0  0  0  0  0  0  0  0  0  0
    3.1060    1.2367   13.2184 C   0  0  0  0  0  0  0  0  0  0  0  0
    4.4145    1.2803   13.6968 C   0  0  0  0  0  0  0  0  0  0  0  0
    4.7440    0.4821   14.7570 N   0  0  0  0  0  0  0  0  0  0  0  0
    5.8987    0.3805   15.4839 C   0  0  0  0  0  0  0  0  0  0  0  0
    5.5936   -0.5339   16.5243 C   0  0  0  0  0  0  0  0  0  0  0  0
    4.3807   -1.0510   16.3702 N   0  0  0  0  0  0  0  0  0  0  0  0
    3.8367   -0.4037   15.3198 C   0  0  0  0  0  0  0  0  0  0  0  0
    2.6315    2.1595   12.1222 C   0  0  0  0  0  0  0  0  0  0  0  0
    3.5425    2.6427   11.1618 C   0  0  0  0  0  0  0  0  0  0  0  0
    3.1486    3.4642   10.1071 C   0  0  0  0  0  0  0  0  0  0  0  0
    1.8051    3.8185   10.0149 C   0  0  0  0  0  0  0  0  0  0  0  0
    0.9940    4.5977    9.1169 C   0  0  0  0  0  0  0  0  0  0  0  0
   -0.2465    4.6060    9.5156 N   0  0  0  0  0  0  0  0  0  0  0  0
   -0.3325    3.8910   10.6299 N   0  0  0  0  0  0  0  0  0  0  0  0
    0.8808    3.3589   10.9978 C   0  0  0  0  0  0  0  0  0  0  0  0
    1.2718    2.5352   12.0615 C   0  0  0  0  0  0  0  0  0  0  0  0
   -0.3941   -2.6060   15.8167 C   0  0  0  0  0  0  0  0  0  0  0  0
   -1.7488   -2.8660   15.6892 C   0  0  0  0  0  0  0  0  0  0  0  0
   -4.1278   -4.3576   15.4842 H   0  0  0  0  0  0  0  0  0  0  0  0
   -5.6178   -3.4125   15.4956 H   0  0  0  0  0  0  0  0  0  0  0  0
   -4.3606   -3.0644   16.6771 H   0  0  0  0  0  0  0  0  0  0  0  0
   -4.3056   -1.1886   12.9786 H   0  0  0  0  0  0  0  0  0  0  0  0
   -5.6839   -1.7325   13.7631 H   0  0  0  0  0  0  0  0  0  0  0  0
   -5.1990   -4.1205   12.9069 H   0  0  0  0  0  0  0  0  0  0  0  0
   -3.8094   -3.5657   12.2747 H   0  0  0  0  0  0  0  0  0  0  0  0
   -4.7580   -2.2447   10.7741 H   0  0  0  0  0  0  0  0  0  0  0  0
   -2.5097   -0.4888   13.3742 H   0  0  0  0  0  0  0  0  0  0  0  0
   -0.1087   -0.0249   13.6285 H   0  0  0  0  0  0  0  0  0  0  0  0
    1.9936   -1.9427   16.0592 H   0  0  0  0  0  0  0  0  0  0  0  0
    5.1750    1.9595   13.3389 H   0  0  0  0  0  0  0  0  0  0  0  0
    6.7815    0.9622   15.2772 H   0  0  0  0  0  0  0  0  0  0  0  0
    6.2344   -0.8078   17.3485 H   0  0  0  0  0  0  0  0  0  0  0  0
    4.5815    2.3487   11.2258 H   0  0  0  0  0  0  0  0  0  0  0  0
    3.8643    3.8051    9.3767 H   0  0  0  0  0  0  0  0  0  0  0  0
    1.3025    5.1220    8.2278 H   0  0  0  0  0  0  0  0  0  0  0  0
   -1.2233    3.7862   11.0983 H   0  0  0  0  0  0  0  0  0  0  0  0
    0.5648    2.1990   12.8082 H   0  0  0  0  0  0  0  0  0  0  0  0
    0.1950   -3.1981   16.5054 H   0  0  0  0  0  0  0  0  0  0  0  0
   -2.1858   -3.6564   16.2764 H   0  0  0  0  0  0  0  0  0  0  0  0
  1  2  1  0  0  0  0
  1 31  1  0  0  0  0
  1 32  1  0  0  0  0
  1 33  1  0  0  0  0
  2  3  1  0  0  0  0
  2  6  1  0  0  0  0
  3  4  1  0  0  0  0
  3 34  1  0  0  0  0
  3 35  1  0  0  0  0
  4  5  1  0  0  0  0
  4 36  1  0  0  0  0
  4 37  1  0  0  0  0
  5 38  1  0  0  0  0
  6  7  2  0  0  0  0
  6 30  1  0  0  0  0
  7  8  1  0  0  0  0
  7 39  1  0  0  0  0
  8  9  2  0  0  0  0
  8 40  1  0  0  0  0
  9 10  1  0  0  0  0
  9 29  1  0  0  0  0
 10 11  1  0  0  0  0
 10 41  1  0  0  0  0
 11 12  2  0  0  0  0
 11 19  1  0  0  0  0
 12 13  1  0  0  0  0
 13 14  2  0  0  0  0
 13 20  1  0  0  0  0
 14 15  1  0  0  0  0
 14 42  1  0  0  0  0
 15 16  1  0  0  0  0
 15 19  1  0  0  0  0
 16 17  2  0  0  0  0
 16 43  1  0  0  0  0
 17 18  1  0  0  0  0
 17 44  1  0  0  0  0
 18 19  2  0  0  0  0
 20 21  2  0  0  0  0
 20 28  1  0  0  0  0
 21 22  1  0  0  0  0
 21 45  1  0  0  0  0
 22 23  2  0  0  0  0
 22 46  1  0  0  0  0
 23 24  1  0  0  0  0
 23 27  1  0  0  0  0
 24 25  2  0  0  0  0
 24 47  1  0  0  0  0
 25 26  1  0  0  0  0
 26 27  1  0  0  0  0
 26 48  1  0  0  0  0
 27 28  2  0  0  0  0
 28 49  1  0  0  0  0
 29 30  2  0  0  0  0
 29 50  1  0  0  0  0
 30 51  1  0  0  0  0
M  END
>  <IC50[nM]>
7.6

$$$$
