@<TRIPOS>MOLECULE
CHEMBL3265024
 50 54 0 0 0
SMALL
GASTEIGER
****
Structure written by MMmdl.
@<TRIPOS>ATOM
      1 C          -4.2568   -3.1054   13.5684 C.3     1  LIG1        0.0790
      2 O          -3.8727   -2.3625   14.7149 O.3     1  LIG1       -0.4915
      3 C          -2.5248   -2.1122   14.8155 C.ar    1  LIG1        0.1616
      4 C          -1.7475   -2.8704   15.6805 C.ar    1  LIG1       -0.0146
      5 C          -0.3908   -2.6105   15.8142 C.ar    1  LIG1       -0.0368
      6 C           0.2212   -1.5850   15.0876 C.ar    1  LIG1        0.0362
      7 N           1.6034   -1.3608   15.3283 N.pl3   1  LIG1       -0.2964
      8 C           2.5312   -0.4403   14.7667 C.ar    1  LIG1        0.1669
      9 N           2.1675    0.3842   13.7368 N.ar    1  LIG1       -0.2267
     10 C           3.1076    1.2383   13.2220 C.ar    1  LIG1        0.0897
     11 C           4.4125    1.2788   13.7032 C.ar    1  LIG1        0.0373
     12 N           4.7426    0.4894   14.7579 N.ar    1  LIG1       -0.3018
     13 C           5.8974    0.3808   15.4860 C.ar    1  LIG1        0.0294
     14 C           5.5940   -0.5330   16.5234 C.ar    1  LIG1        0.0465
     15 N           4.3802   -1.0455   16.3684 N.ar    1  LIG1       -0.2330
     16 C           3.8358   -0.3914   15.3289 C.ar    1  LIG1        0.1784
     17 C           2.6478    2.1536   12.1231 C.ar    1  LIG1        0.0038
     18 C           3.5652    2.6370   11.1626 C.ar    1  LIG1       -0.0489
     19 C           3.1327    3.4633   10.1244 C.ar    1  LIG1       -0.0174
     20 C           1.7965    3.8161   10.0403 C.ar    1  LIG1        0.1423
     21 O           1.4003    4.6403    9.0163 O.3     1  LIG1       -0.4809
     22 C           0.0245    4.4666    8.5995 C.3     1  LIG1        0.1656
     23 C          -1.0306    4.3224    9.7544 C.2     1  LIG1        0.2549
     24 O          -2.2095    4.6594    9.6693 O.2     1  LIG1       -0.2717
     25 N          -0.4630    3.7540   10.8496 N.am    1  LIG1       -0.2798
     26 C           0.8760    3.3777   10.9729 C.ar    1  LIG1        0.0763
     27 C           1.2936    2.5512   12.0256 C.ar    1  LIG1       -0.0277
     28 C          -0.5545   -0.8186   14.1904 C.ar    1  LIG1        0.0049
     29 C          -1.9414   -1.0869   14.0597 C.ar    1  LIG1        0.1632
     30 O          -2.7479   -0.3495   13.2074 O.3     1  LIG1       -0.4914
     31 C          -2.2257    0.6484   12.3503 C.3     1  LIG1        0.0790
     32 H          -5.3364   -3.2530   13.5862 H       1  LIG1        0.0660
     33 H          -3.7871   -4.0896   13.5579 H       1  LIG1        0.0660
     34 H          -4.0111   -2.5827   12.6426 H       1  LIG1        0.0660
     35 H          -2.2013   -3.6605   16.2619 H       1  LIG1        0.0656
     36 H           0.1985   -3.2029   16.5011 H       1  LIG1        0.0637
     37 H           1.9936   -1.9428   16.0565 H       1  LIG1        0.1537
     38 H           5.1741    1.9556   13.3388 H       1  LIG1        0.0835
     39 H           6.7812    0.9637   15.2765 H       1  LIG1        0.0829
     40 H           6.2349   -0.8119   17.3458 H       1  LIG1        0.0845
     41 H           4.6048    2.3508   11.2165 H       1  LIG1        0.0625
     42 H           3.8336    3.8213    9.3866 H       1  LIG1        0.0655
     43 H          -0.2884    5.2770    7.9386 H       1  LIG1        0.0795
     44 H          -0.0356    3.5427    8.0188 H       1  LIG1        0.0795
     45 H          -1.0932    3.5716   11.6149 H       1  LIG1        0.1550
     46 H           0.5806    2.2143   12.7659 H       1  LIG1        0.0644
     47 H          -0.1112   -0.0266   13.6222 H       1  LIG1        0.0674
     48 H          -3.0472    1.0725   11.7697 H       1  LIG1        0.0660
     49 H          -1.5042    0.2337   11.6479 H       1  LIG1        0.0660
     50 H          -1.7772    1.4543   12.9275 H       1  LIG1        0.0660
@<TRIPOS>BOND
     1     1     2    1
     2     1    32    1
     3     1    33    1
     4     1    34    1
     5     2     3    1
     6     3     4   ar
     7     3    29   ar
     8     4     5   ar
     9     4    35    1
    10     5     6   ar
    11     5    36    1
    12     6     7    1
    13     6    28   ar
    14     7     8    1
    15     7    37    1
    16     8     9   ar
    17     8    16   ar
    18     9    10   ar
    19    10    11   ar
    20    10    17    1
    21    11    12   ar
    22    11    38    1
    23    12    13   ar
    24    12    16   ar
    25    13    14   ar
    26    13    39    1
    27    14    15   ar
    28    14    40    1
    29    15    16   ar
    30    17    18   ar
    31    17    27   ar
    32    18    19   ar
    33    18    41    1
    34    19    20   ar
    35    19    42    1
    36    20    21    1
    37    20    26   ar
    38    21    22    1
    39    22    23    1
    40    22    43    1
    41    22    44    1
    42    23    24    2
    43    23    25   am
    44    25    26    1
    45    25    45    1
    46    26    27   ar
    47    27    46    1
    48    28    29   ar
    49    28    47    1
    50    29    30    1
    51    30    31    1
    52    31    48    1
    53    31    49    1
    54    31    50    1
