@<TRIPOS>MOLECULE
CHEMBL3265034
 53 58 0 0 0
SMALL
GASTEIGER
****
Structure written by MMmdl.
@<TRIPOS>ATOM
      1 C          -5.7484   -4.1352   14.0916 C.3     1  LIG1        0.0482
      2 C          -4.2467   -3.7965   14.1043 C.3     1  LIG1       -0.0226
      3 C          -4.0046   -2.3867   14.6667 C.3     1  LIG1       -0.0117
      4 C          -4.7211   -2.2350   16.0203 C.3     1  LIG1       -0.0226
      5 C          -6.1989   -2.6529   15.9141 C.3     1  LIG1        0.0482
      6 O          -6.2949   -3.9790   15.3990 O.3     1  LIG1       -0.3797
      7 C          -2.5163   -2.1019   14.8026 C.ar    1  LIG1       -0.0440
      8 C          -1.7444   -2.8650   15.6773 C.ar    1  LIG1       -0.0566
      9 C          -0.3947   -2.6068   15.8182 C.ar    1  LIG1       -0.0402
     10 C           0.2168   -1.5789   15.0929 C.ar    1  LIG1        0.0325
     11 N           1.5959   -1.3413   15.3408 N.pl3   1  LIG1       -0.2965
     12 C           2.5346   -0.4433   14.7633 C.ar    1  LIG1        0.1669
     13 N           2.1825    0.3683   13.7202 N.ar    1  LIG1       -0.2267
     14 C           3.1144    1.2372   13.2163 C.ar    1  LIG1        0.0897
     15 C           4.4190    1.2837   13.7018 C.ar    1  LIG1        0.0373
     16 N           4.7465    0.4877   14.7594 N.ar    1  LIG1       -0.3018
     17 C           5.8977    0.3771   15.4862 C.ar    1  LIG1        0.0294
     18 C           5.5879   -0.5237   16.5292 C.ar    1  LIG1        0.0465
     19 N           4.3754   -1.0416   16.3746 N.ar    1  LIG1       -0.2330
     20 C           3.8361   -0.3925   15.3266 C.ar    1  LIG1        0.1784
     21 C           2.6384    2.1617   12.1197 C.ar    1  LIG1        0.0039
     22 C           3.5461    2.6405   11.1618 C.ar    1  LIG1       -0.0518
     23 C           3.1445    3.4623   10.1105 C.ar    1  LIG1       -0.0505
     24 C           1.7985    3.8158   10.0184 C.ar    1  LIG1        0.0195
     25 C           0.9907    4.5934    9.1205 C.ar    1  LIG1        0.0569
     26 N          -0.2502    4.6054    9.5128 N.ar    1  LIG1       -0.1812
     27 N          -0.3377    3.8946   10.6262 N.ar    1  LIG1       -0.2769
     28 C           0.8856    3.3616   10.9945 C.ar    1  LIG1        0.0663
     29 C           1.2735    2.5429   12.0624 C.ar    1  LIG1       -0.0271
     30 C          -0.5534   -0.8155   14.1947 C.ar    1  LIG1       -0.0402
     31 C          -1.9224   -1.0793   14.0569 C.ar    1  LIG1       -0.0566
     32 H          -6.2805   -3.4837   13.3942 H       1  LIG1        0.0560
     33 H          -5.9038   -5.1578   13.7553 H       1  LIG1        0.0560
     34 H          -3.8408   -3.8755   13.0976 H       1  LIG1        0.0293
     35 H          -3.7264   -4.5315   14.7202 H       1  LIG1        0.0293
     36 H          -4.4085   -1.6510   13.9680 H       1  LIG1        0.0350
     37 H          -4.6501   -1.2085   16.3760 H       1  LIG1        0.0293
     38 H          -4.2346   -2.8646   16.7675 H       1  LIG1        0.0293
     39 H          -6.7408   -1.9682   15.2574 H       1  LIG1        0.0560
     40 H          -6.6781   -2.6070   16.8893 H       1  LIG1        0.0560
     41 H          -2.1988   -3.6577   16.2587 H       1  LIG1        0.0621
     42 H           0.1892   -3.2031   16.5076 H       1  LIG1        0.0636
     43 H           1.9651   -1.8647   16.1167 H       1  LIG1        0.1537
     44 H           5.1809    1.9629   13.3422 H       1  LIG1        0.0835
     45 H           6.7856    0.9487   15.2757 H       1  LIG1        0.0829
     46 H           6.2292   -0.7937   17.3519 H       1  LIG1        0.0845
     47 H           4.5884    2.3469   11.2223 H       1  LIG1        0.0624
     48 H           3.8528    3.8060    9.3832 H       1  LIG1        0.0625
     49 H           1.3017    5.1139    8.2368 H       1  LIG1        0.0854
     50 H          -1.2272    3.7941   11.0903 H       1  LIG1        0.1889
     51 H           0.5743    2.2194   12.8032 H       1  LIG1        0.0645
     52 H          -0.1159   -0.0226   13.6276 H       1  LIG1        0.0636
     53 H          -2.5226   -0.4866   13.3791 H       1  LIG1        0.0621
@<TRIPOS>BOND
     1     1     2    1
     2     1     6    1
     3     1    32    1
     4     1    33    1
     5     2     3    1
     6     2    34    1
     7     2    35    1
     8     3     4    1
     9     3     7    1
    10     3    36    1
    11     4     5    1
    12     4    37    1
    13     4    38    1
    14     5     6    1
    15     5    39    1
    16     5    40    1
    17     7     8   ar
    18     7    31   ar
    19     8     9   ar
    20     8    41    1
    21     9    10   ar
    22     9    42    1
    23    10    11    1
    24    10    30   ar
    25    11    12    1
    26    11    43    1
    27    12    13   ar
    28    12    20   ar
    29    13    14   ar
    30    14    15   ar
    31    14    21    1
    32    15    16   ar
    33    15    44    1
    34    16    17   ar
    35    16    20   ar
    36    17    18   ar
    37    17    45    1
    38    18    19   ar
    39    18    46    1
    40    19    20   ar
    41    21    22   ar
    42    21    29   ar
    43    22    23   ar
    44    22    47    1
    45    23    24   ar
    46    23    48    1
    47    24    25   ar
    48    24    28   ar
    49    25    26   ar
    50    25    49    1
    51    26    27   ar
    52    27    28   ar
    53    27    50    1
    54    28    29   ar
    55    29    51    1
    56    30    31   ar
    57    30    52    1
    58    31    53    1
