@<TRIPOS>MOLECULE
CHEMBL3265022
 50 54 0 0 0
SMALL
GASTEIGER
****
Structure written by MMmdl.
@<TRIPOS>ATOM
      1 C          -4.2567   -3.1047   13.5688 C.3     1  LIG1        0.0790
      2 O          -3.8734   -2.3604   14.7149 O.3     1  LIG1       -0.4915
      3 C          -2.5253   -2.1111   14.8171 C.ar    1  LIG1        0.1616
      4 C          -1.7475   -2.8730   15.6782 C.ar    1  LIG1       -0.0146
      5 C          -0.3907   -2.6182   15.8081 C.ar    1  LIG1       -0.0368
      6 C           0.2216   -1.5894   15.0857 C.ar    1  LIG1        0.0362
      7 N           1.6073   -1.3712   15.3149 N.pl3   1  LIG1       -0.2964
      8 C           2.5355   -0.4471   14.7615 C.ar    1  LIG1        0.1669
      9 N           2.1757    0.3798   13.7323 N.ar    1  LIG1       -0.2267
     10 C           3.1108    1.2385   13.2179 C.ar    1  LIG1        0.0897
     11 C           4.4177    1.2796   13.6973 C.ar    1  LIG1        0.0373
     12 N           4.7459    0.4877   14.7580 N.ar    1  LIG1       -0.3018
     13 C           5.8989    0.3777   15.4842 C.ar    1  LIG1        0.0294
     14 C           5.5905   -0.5278   16.5266 C.ar    1  LIG1        0.0465
     15 N           4.3783   -1.0442   16.3710 N.ar    1  LIG1       -0.2330
     16 C           3.8361   -0.3924   15.3256 C.ar    1  LIG1        0.1784
     17 C           2.6345    2.1599   12.1209 C.ar    1  LIG1        0.0039
     18 C           3.5455    2.6449   11.1653 C.ar    1  LIG1       -0.0518
     19 C           3.1472    3.4641   10.1113 C.ar    1  LIG1       -0.0504
     20 C           1.8026    3.8166   10.0162 C.ar    1  LIG1        0.0197
     21 C           0.9964    4.5969    9.1149 C.ar    1  LIG1        0.0571
     22 N          -0.2457    4.6110    9.5049 N.ar    1  LIG1       -0.1788
     23 N          -0.3357    3.9010   10.6180 N.ar    1  LIG1       -0.2667
     24 C          -1.6267    3.7825   11.2689 C.3     1  LIG1        0.0309
     25 C           0.8830    3.3583   10.9929 C.ar    1  LIG1        0.0692
     26 C           1.2696    2.5335   12.0602 C.ar    1  LIG1       -0.0268
     27 C          -0.5547   -0.8145   14.1988 C.ar    1  LIG1        0.0049
     28 C          -1.9437   -1.0858   14.0662 C.ar    1  LIG1        0.1632
     29 O          -2.7514   -0.3534   13.2139 O.3     1  LIG1       -0.4914
     30 C          -2.2220    0.6070   12.3331 C.3     1  LIG1        0.0790
     31 H          -5.3359   -3.2534   13.5870 H       1  LIG1        0.0660
     32 H          -3.7874   -4.0892   13.5581 H       1  LIG1        0.0660
     33 H          -4.0127   -2.5809   12.6432 H       1  LIG1        0.0660
     34 H          -2.1986   -3.6652   16.2573 H       1  LIG1        0.0656
     35 H           0.1975   -3.2194   16.4879 H       1  LIG1        0.0637
     36 H           2.0047   -1.9732   16.0205 H       1  LIG1        0.1537
     37 H           5.1816    1.9533   13.3327 H       1  LIG1        0.0835
     38 H           6.7844    0.9544   15.2754 H       1  LIG1        0.0829
     39 H           6.2308   -0.8005   17.3497 H       1  LIG1        0.0845
     40 H           4.5872    2.3567   11.2306 H       1  LIG1        0.0624
     41 H           3.8598    3.8084    9.3838 H       1  LIG1        0.0625
     42 H           1.3099    5.1193    8.2308 H       1  LIG1        0.0854
     43 H          -1.5635    4.1826   12.2778 H       1  LIG1        0.0473
     44 H          -1.8990    2.7466   11.2882 H       1  LIG1        0.0473
     45 H          -2.4088    4.3136   10.7194 H       1  LIG1        0.0473
     46 H           0.5682    2.1998   12.8003 H       1  LIG1        0.0645
     47 H          -0.1091   -0.0207   13.6374 H       1  LIG1        0.0674
     48 H          -3.0436    1.0382   11.7546 H       1  LIG1        0.0660
     49 H          -1.5161    0.1773   11.6242 H       1  LIG1        0.0660
     50 H          -1.7468    1.4118   12.8931 H       1  LIG1        0.0660
@<TRIPOS>BOND
     1     1     2    1
     2     1    31    1
     3     1    32    1
     4     1    33    1
     5     2     3    1
     6     3     4   ar
     7     3    28   ar
     8     4     5   ar
     9     4    34    1
    10     5     6   ar
    11     5    35    1
    12     6     7    1
    13     6    27   ar
    14     7     8    1
    15     7    36    1
    16     8     9   ar
    17     8    16   ar
    18     9    10   ar
    19    10    11   ar
    20    10    17    1
    21    11    12   ar
    22    11    37    1
    23    12    13   ar
    24    12    16   ar
    25    13    14   ar
    26    13    38    1
    27    14    15   ar
    28    14    39    1
    29    15    16   ar
    30    17    18   ar
    31    17    26   ar
    32    18    19   ar
    33    18    40    1
    34    19    20   ar
    35    19    41    1
    36    20    21   ar
    37    20    25   ar
    38    21    22   ar
    39    21    42    1
    40    22    23   ar
    41    23    24    1
    42    23    25   ar
    43    24    43    1
    44    24    44    1
    45    24    45    1
    46    25    26   ar
    47    26    46    1
    48    27    28   ar
    49    27    47    1
    50    28    29    1
    51    29    30    1
    52    30    48    1
    53    30    49    1
    54    30    50    1
