CHEMBL3265016
 OpenBabel02152110423D
Structure written by MMmdl.
 48 52  0  0  1  0  0  0  0  0999 V2000
   -4.2568   -3.1050   13.5687 C   0  0  0  0  0  0  0  0  0  0  0  0
   -3.8730   -2.3616   14.7152 O   0  0  0  0  0  0  0  0  0  0  0  0
   -2.5250   -2.1116   14.8158 C   0  0  0  0  0  0  0  0  0  0  0  0
   -1.7470   -2.8700   15.6807 C   0  0  0  0  0  0  0  0  0  0  0  0
   -0.3902   -2.6106   15.8144 C   0  0  0  0  0  0  0  0  0  0  0  0
    0.2207   -1.5844   15.0868 C   0  0  0  0  0  0  0  0  0  0  0  0
    1.6046   -1.3596   15.3257 N   0  0  0  0  0  0  0  0  0  0  0  0
    2.5329   -0.4401   14.7638 C   0  0  0  0  0  0  0  0  0  0  0  0
    2.1751    0.3788   13.7311 N   0  0  0  0  0  0  0  0  0  0  0  0
    3.1086    1.2387   13.2176 C   0  0  0  0  0  0  0  0  0  0  0  0
    4.4159    1.2831   13.6998 C   0  0  0  0  0  0  0  0  0  0  0  0
    4.7435    0.4926   14.7566 N   0  0  0  0  0  0  0  0  0  0  0  0
    5.8975    0.3810   15.4862 C   0  0  0  0  0  0  0  0  0  0  0  0
    5.5917   -0.5286   16.5249 C   0  0  0  0  0  0  0  0  0  0  0  0
    4.3780   -1.0408   16.3703 N   0  0  0  0  0  0  0  0  0  0  0  0
    3.8370   -0.3906   15.3278 C   0  0  0  0  0  0  0  0  0  0  0  0
    2.6350    2.1602   12.1213 C   0  0  0  0  0  0  0  0  0  0  0  0
    3.5425    2.6402   11.1650 C   0  0  0  0  0  0  0  0  0  0  0  0
    3.1493    3.4616   10.1117 C   0  0  0  0  0  0  0  0  0  0  0  0
    1.8041    3.8212   10.0117 C   0  0  0  0  0  0  0  0  0  0  0  0
    1.0219    4.6165    9.0806 C   0  0  0  0  0  0  0  0  0  0  0  0
   -0.2682    4.5927    9.5377 C   0  0  0  0  0  0  0  0  0  0  0  0
   -0.3496    3.8668   10.6667 N   0  0  0  0  0  0  0  0  0  0  0  0
    0.8806    3.3533   11.0064 C   0  0  0  0  0  0  0  0  0  0  0  0
    1.2701    2.5323   12.0703 C   0  0  0  0  0  0  0  0  0  0  0  0
   -0.5547   -0.8186   14.1912 C   0  0  0  0  0  0  0  0  0  0  0  0
   -1.9427   -1.0874   14.0603 C   0  0  0  0  0  0  0  0  0  0  0  0
   -2.7500   -0.3519   13.2066 O   0  0  0  0  0  0  0  0  0  0  0  0
   -2.2281    0.6471   12.3512 C   0  0  0  0  0  0  0  0  0  0  0  0
   -5.3362   -3.2528   13.5863 H   0  0  0  0  0  0  0  0  0  0  0  0
   -3.7878   -4.0896   13.5583 H   0  0  0  0  0  0  0  0  0  0  0  0
   -4.0115   -2.5819   12.6430 H   0  0  0  0  0  0  0  0  0  0  0  0
   -2.1984   -3.6612   16.2623 H   0  0  0  0  0  0  0  0  0  0  0  0
    0.1986   -3.2043   16.5000 H   0  0  0  0  0  0  0  0  0  0  0  0
    1.9930   -1.9388   16.0550 H   0  0  0  0  0  0  0  0  0  0  0  0
    5.1768    1.9603   13.3373 H   0  0  0  0  0  0  0  0  0  0  0  0
    6.7836    0.9581   15.2759 H   0  0  0  0  0  0  0  0  0  0  0  0
    6.2317   -0.8060   17.3476 H   0  0  0  0  0  0  0  0  0  0  0  0
    4.5826    2.3470   11.2271 H   0  0  0  0  0  0  0  0  0  0  0  0
    3.8655    3.8013    9.3845 H   0  0  0  0  0  0  0  0  0  0  0  0
    1.3655    5.1278    8.2063 H   0  0  0  0  0  0  0  0  0  0  0  0
   -1.1634    5.0533    9.1382 H   0  0  0  0  0  0  0  0  0  0  0  0
   -1.2206    3.7428   11.1558 H   0  0  0  0  0  0  0  0  0  0  0  0
    0.5744    2.1993   12.8125 H   0  0  0  0  0  0  0  0  0  0  0  0
   -0.1099   -0.0288   13.6231 H   0  0  0  0  0  0  0  0  0  0  0  0
   -3.0484    1.0726   11.7702 H   0  0  0  0  0  0  0  0  0  0  0  0
   -1.5061    0.2341   11.6487 H   0  0  0  0  0  0  0  0  0  0  0  0
   -1.7788    1.4529   12.9278 H   0  0  0  0  0  0  0  0  0  0  0  0
  1  2  1  0  0  0  0
  1 30  1  0  0  0  0
  1 31  1  0  0  0  0
  1 32  1  0  0  0  0
  2  3  1  0  0  0  0
  3  4  2  0  0  0  0
  3 27  1  0  0  0  0
  4  5  1  0  0  0  0
  4 33  1  0  0  0  0
  5  6  2  0  0  0  0
  5 34  1  0  0  0  0
  6  7  1  0  0  0  0
  6 26  1  0  0  0  0
  7  8  1  0  0  0  0
  7 35  1  0  0  0  0
  8  9  2  0  0  0  0
  8 16  1  0  0  0  0
  9 10  1  0  0  0  0
 10 11  2  0  0  0  0
 10 17  1  0  0  0  0
 11 12  1  0  0  0  0
 11 36  1  0  0  0  0
 12 13  1  0  0  0  0
 12 16  1  0  0  0  0
 13 14  2  0  0  0  0
 13 37  1  0  0  0  0
 14 15  1  0  0  0  0
 14 38  1  0  0  0  0
 15 16  2  0  0  0  0
 17 18  2  0  0  0  0
 17 25  1  0  0  0  0
 18 19  1  0  0  0  0
 18 39  1  0  0  0  0
 19 20  2  0  0  0  0
 19 40  1  0  0  0  0
 20 21  1  0  0  0  0
 20 24  1  0  0  0  0
 21 22  2  0  0  0  0
 21 41  1  0  0  0  0
 22 23  1  0  0  0  0
 22 42  1  0  0  0  0
 23 24  1  0  0  0  0
 23 43  1  0  0  0  0
 24 25  2  0  0  0  0
 25 44  1  0  0  0  0
 26 27  2  0  0  0  0
 26 45  1  0  0  0  0
 27 28  1  0  0  0  0
 28 29  1  0  0  0  0
 29 46  1  0  0  0  0
 29 47  1  0  0  0  0
 29 48  1  0  0  0  0
M  END
>  <IC50[nM]>
2.7

$$$$
