@<TRIPOS>MOLECULE
CHEMBL3265013
 51 54 0 0 0
SMALL
GASTEIGER
****
Structure written by MMmdl.
@<TRIPOS>ATOM
      1 C          -4.2553   -3.1063   13.5659 C.3     1  LIG1        0.0790
      2 O          -3.8742   -2.3531   14.7065 O.3     1  LIG1       -0.4915
      3 C          -2.5276   -2.1063   14.8134 C.ar    1  LIG1        0.1616
      4 C          -1.7534   -2.8662   15.6836 C.ar    1  LIG1       -0.0146
      5 C          -0.3974   -2.6067   15.8226 C.ar    1  LIG1       -0.0368
      6 C           0.2193   -1.5855   15.0957 C.ar    1  LIG1        0.0362
      7 N           1.6033   -1.3619   15.3321 N.pl3   1  LIG1       -0.2964
      8 C           2.5310   -0.4394   14.7826 C.ar    1  LIG1        0.1669
      9 N           2.1681    0.3851   13.7534 N.ar    1  LIG1       -0.2267
     10 C           3.1084    1.2291   13.2323 C.ar    1  LIG1        0.0897
     11 C           4.4111    1.2775   13.7062 C.ar    1  LIG1        0.0373
     12 N           4.7446    0.4849   14.7663 N.ar    1  LIG1       -0.3018
     13 C           5.8943    0.3819   15.4817 C.ar    1  LIG1        0.0294
     14 C           5.5914   -0.5326   16.5146 C.ar    1  LIG1        0.0465
     15 N           4.3838   -1.0600   16.3570 N.ar    1  LIG1       -0.2330
     16 C           3.8360   -0.3910   15.3315 C.ar    1  LIG1        0.1784
     17 C           2.6494    2.1359   12.1286 C.ar    1  LIG1        0.0021
     18 C           3.5584    2.6335   11.1783 C.ar    1  LIG1       -0.0518
     19 C           3.1269    3.4578   10.1469 C.ar    1  LIG1       -0.0488
     20 C           1.7725    3.8115   10.0354 C.ar    1  LIG1        0.0394
     21 C           1.3343    4.6941    8.8847 C.2     1  LIG1        0.2418
     22 O           2.0989    5.5193    8.3952 O.2     1  LIG1       -0.2704
     23 N           0.0978    4.4815    8.4258 N.am    1  LIG1       -0.3253
     24 C           0.8524    3.3384   11.0121 C.ar    1  LIG1       -0.0377
     25 C          -0.6224    3.7518   10.9890 C.3     1  LIG1       -0.0390
     26 C           1.2991    2.5101   12.0360 C.ar    1  LIG1       -0.0489
     27 C          -0.5507   -0.8158   14.1957 C.ar    1  LIG1        0.0049
     28 C          -1.9415   -1.0842   14.0609 C.ar    1  LIG1        0.1632
     29 O          -2.7452   -0.3406   13.2070 O.3     1  LIG1       -0.4914
     30 C          -2.1924    0.4470   12.1700 C.3     1  LIG1        0.0790
     31 H          -5.3356   -3.2496   13.5811 H       1  LIG1        0.0660
     32 H          -3.7889   -4.0922   13.5603 H       1  LIG1        0.0660
     33 H          -4.0032   -2.5893   12.6399 H       1  LIG1        0.0660
     34 H          -2.2026   -3.6557   16.2609 H       1  LIG1        0.0656
     35 H           0.1866   -3.2024   16.5111 H       1  LIG1        0.0637
     36 H           1.9910   -1.9452   16.0564 H       1  LIG1        0.1537
     37 H           5.1687    1.9466   13.3246 H       1  LIG1        0.0835
     38 H           6.7729    0.9741   15.2789 H       1  LIG1        0.0829
     39 H           6.2395   -0.8158   17.3246 H       1  LIG1        0.0845
     40 H           4.5960    2.3576   11.2295 H       1  LIG1        0.0624
     41 H           3.8409    3.8102    9.4155 H       1  LIG1        0.0625
     42 H          -0.2537    5.0105    7.6461 H       1  LIG1        0.1453
     43 H          -0.4831    3.7720    8.8458 H       1  LIG1        0.1453
     44 H          -1.1053    3.5651   11.9422 H       1  LIG1        0.0278
     45 H          -1.1697    3.2135   10.2168 H       1  LIG1        0.0278
     46 H          -0.7255    4.8289   10.8204 H       1  LIG1        0.0278
     47 H           0.6002    2.1680   12.7776 H       1  LIG1        0.0627
     48 H          -0.1045   -0.0276   13.6335 H       1  LIG1        0.0674
     49 H          -3.0148    0.9031   11.6158 H       1  LIG1        0.0660
     50 H          -1.6244   -0.1596   11.4651 H       1  LIG1        0.0660
     51 H          -1.5752    1.2513   12.5580 H       1  LIG1        0.0660
@<TRIPOS>BOND
     1     1     2    1
     2     1    31    1
     3     1    32    1
     4     1    33    1
     5     2     3    1
     6     3     4   ar
     7     3    28   ar
     8     4     5   ar
     9     4    34    1
    10     5     6   ar
    11     5    35    1
    12     6     7    1
    13     6    27   ar
    14     7     8    1
    15     7    36    1
    16     8     9   ar
    17     8    16   ar
    18     9    10   ar
    19    10    11   ar
    20    10    17    1
    21    11    12   ar
    22    11    37    1
    23    12    13   ar
    24    12    16   ar
    25    13    14   ar
    26    13    38    1
    27    14    15   ar
    28    14    39    1
    29    15    16   ar
    30    17    18   ar
    31    17    26   ar
    32    18    19   ar
    33    18    40    1
    34    19    20   ar
    35    19    41    1
    36    20    21    1
    37    20    24   ar
    38    21    22    2
    39    21    23   am
    40    23    42    1
    41    23    43    1
    42    24    25    1
    43    24    26   ar
    44    25    44    1
    45    25    45    1
    46    25    46    1
    47    26    47    1
    48    27    28   ar
    49    27    48    1
    50    28    29    1
    51    29    30    1
    52    30    49    1
    53    30    50    1
    54    30    51    1
