CHEMBL3265020
 OpenBabel02152110423D
Structure written by MMmdl.
 48 52  0  0  1  0  0  0  0  0999 V2000
   -4.2567   -3.1041   13.5694 C   0  0  0  0  0  0  0  0  0  0  0  0
   -3.8737   -2.3598   14.7157 O   0  0  0  0  0  0  0  0  0  0  0  0
   -2.5259   -2.1106   14.8172 C   0  0  0  0  0  0  0  0  0  0  0  0
   -1.7455   -2.8698   15.6821 C   0  0  0  0  0  0  0  0  0  0  0  0
   -0.3904   -2.6103   15.8138 C   0  0  0  0  0  0  0  0  0  0  0  0
    0.2204   -1.5845   15.0865 C   0  0  0  0  0  0  0  0  0  0  0  0
    1.6043   -1.3599   15.3203 N   0  0  0  0  0  0  0  0  0  0  0  0
    2.5377   -0.4463   14.7588 C   0  0  0  0  0  0  0  0  0  0  0  0
    2.1842    0.3709   13.7215 N   0  0  0  0  0  0  0  0  0  0  0  0
    3.1172    1.2388   13.2173 C   0  0  0  0  0  0  0  0  0  0  0  0
    4.4204    1.2848   13.7037 C   0  0  0  0  0  0  0  0  0  0  0  0
    4.7469    0.4890   14.7614 N   0  0  0  0  0  0  0  0  0  0  0  0
    5.8976    0.3763   15.4868 C   0  0  0  0  0  0  0  0  0  0  0  0
    5.5864   -0.5217   16.5304 C   0  0  0  0  0  0  0  0  0  0  0  0
    4.3754   -1.0422   16.3738 N   0  0  0  0  0  0  0  0  0  0  0  0
    3.8369   -0.3917   15.3265 C   0  0  0  0  0  0  0  0  0  0  0  0
    2.6436    2.1633   12.1173 C   0  0  0  0  0  0  0  0  0  0  0  0
    3.5480    2.6409   11.1599 C   0  0  0  0  0  0  0  0  0  0  0  0
    3.1566    3.4683   10.0981 C   0  0  0  0  0  0  0  0  0  0  0  0
    1.8094    3.8079   10.0262 C   0  0  0  0  0  0  0  0  0  0  0  0
    1.1129    4.5678    9.1158 N   0  0  0  0  0  0  0  0  0  0  0  0
   -0.1959    4.6369    9.4439 C   0  0  0  0  0  0  0  0  0  0  0  0
   -0.4233    3.9255   10.6079 C   0  0  0  0  0  0  0  0  0  0  0  0
    0.8581    3.3610   11.0052 C   0  0  0  0  0  0  0  0  0  0  0  0
    1.2923    2.5453   12.0556 C   0  0  0  0  0  0  0  0  0  0  0  0
   -0.5553   -0.8190   14.1924 C   0  0  0  0  0  0  0  0  0  0  0  0
   -1.9451   -1.0886   14.0616 C   0  0  0  0  0  0  0  0  0  0  0  0
   -2.7542   -0.3572   13.2046 O   0  0  0  0  0  0  0  0  0  0  0  0
   -2.2337    0.6443   12.3523 C   0  0  0  0  0  0  0  0  0  0  0  0
   -5.3357   -3.2522   13.5867 H   0  0  0  0  0  0  0  0  0  0  0  0
   -3.7894   -4.0896   13.5592 H   0  0  0  0  0  0  0  0  0  0  0  0
   -4.0126   -2.5803   12.6439 H   0  0  0  0  0  0  0  0  0  0  0  0
   -2.1924   -3.6626   16.2629 H   0  0  0  0  0  0  0  0  0  0  0  0
    0.1988   -3.2075   16.4976 H   0  0  0  0  0  0  0  0  0  0  0  0
    1.9903   -1.9328   16.0524 H   0  0  0  0  0  0  0  0  0  0  0  0
    5.1821    1.9636   13.3436 H   0  0  0  0  0  0  0  0  0  0  0  0
    6.7861    0.9459   15.2758 H   0  0  0  0  0  0  0  0  0  0  0  0
    6.2270   -0.7893   17.3529 H   0  0  0  0  0  0  0  0  0  0  0  0
    4.5880    2.3439   11.2255 H   0  0  0  0  0  0  0  0  0  0  0  0
    3.8575    3.8116    9.3742 H   0  0  0  0  0  0  0  0  0  0  0  0
    1.4893    5.0309    8.2959 H   0  0  0  0  0  0  0  0  0  0  0  0
   -0.8811    5.2047    8.8100 H   0  0  0  0  0  0  0  0  0  0  0  0
   -1.3687    3.8093   11.1106 H   0  0  0  0  0  0  0  0  0  0  0  0
    0.6011    2.2181   12.8040 H   0  0  0  0  0  0  0  0  0  0  0  0
   -0.1076   -0.0335   13.6255 H   0  0  0  0  0  0  0  0  0  0  0  0
   -3.0510    1.0731   11.7700 H   0  0  0  0  0  0  0  0  0  0  0  0
   -1.5106    0.2345   11.6499 H   0  0  0  0  0  0  0  0  0  0  0  0
   -1.7825    1.4496   12.9275 H   0  0  0  0  0  0  0  0  0  0  0  0
  1  2  1  0  0  0  0
  1 30  1  0  0  0  0
  1 31  1  0  0  0  0
  1 32  1  0  0  0  0
  2  3  1  0  0  0  0
  3  4  2  0  0  0  0
  3 27  1  0  0  0  0
  4  5  1  0  0  0  0
  4 33  1  0  0  0  0
  5  6  2  0  0  0  0
  5 34  1  0  0  0  0
  6  7  1  0  0  0  0
  6 26  1  0  0  0  0
  7  8  1  0  0  0  0
  7 35  1  0  0  0  0
  8  9  2  0  0  0  0
  8 16  1  0  0  0  0
  9 10  1  0  0  0  0
 10 11  2  0  0  0  0
 10 17  1  0  0  0  0
 11 12  1  0  0  0  0
 11 36  1  0  0  0  0
 12 13  1  0  0  0  0
 12 16  1  0  0  0  0
 13 14  2  0  0  0  0
 13 37  1  0  0  0  0
 14 15  1  0  0  0  0
 14 38  1  0  0  0  0
 15 16  2  0  0  0  0
 17 18  2  0  0  0  0
 17 25  1  0  0  0  0
 18 19  1  0  0  0  0
 18 39  1  0  0  0  0
 19 20  2  0  0  0  0
 19 40  1  0  0  0  0
 20 21  1  0  0  0  0
 20 24  1  0  0  0  0
 21 22  1  0  0  0  0
 21 41  1  0  0  0  0
 22 23  2  0  0  0  0
 22 42  1  0  0  0  0
 23 24  1  0  0  0  0
 23 43  1  0  0  0  0
 24 25  2  0  0  0  0
 25 44  1  0  0  0  0
 26 27  2  0  0  0  0
 26 45  1  0  0  0  0
 27 28  1  0  0  0  0
 28 29  1  0  0  0  0
 29 46  1  0  0  0  0
 29 47  1  0  0  0  0
 29 48  1  0  0  0  0
M  END
>  <IC50[nM]>
8.6

$$$$
