CHEMBL3265013
 OpenBabel02152110423D
Structure written by MMmdl.
 51 54  0  0  1  0  0  0  0  0999 V2000
   -4.2553   -3.1063   13.5659 C   0  0  0  0  0  0  0  0  0  0  0  0
   -3.8742   -2.3531   14.7065 O   0  0  0  0  0  0  0  0  0  0  0  0
   -2.5276   -2.1063   14.8134 C   0  0  0  0  0  0  0  0  0  0  0  0
   -1.7534   -2.8662   15.6836 C   0  0  0  0  0  0  0  0  0  0  0  0
   -0.3974   -2.6067   15.8226 C   0  0  0  0  0  0  0  0  0  0  0  0
    0.2193   -1.5855   15.0957 C   0  0  0  0  0  0  0  0  0  0  0  0
    1.6033   -1.3619   15.3321 N   0  0  0  0  0  0  0  0  0  0  0  0
    2.5310   -0.4394   14.7826 C   0  0  0  0  0  0  0  0  0  0  0  0
    2.1681    0.3851   13.7534 N   0  0  0  0  0  0  0  0  0  0  0  0
    3.1084    1.2291   13.2323 C   0  0  0  0  0  0  0  0  0  0  0  0
    4.4111    1.2775   13.7062 C   0  0  0  0  0  0  0  0  0  0  0  0
    4.7446    0.4849   14.7663 N   0  0  0  0  0  0  0  0  0  0  0  0
    5.8943    0.3819   15.4817 C   0  0  0  0  0  0  0  0  0  0  0  0
    5.5914   -0.5326   16.5146 C   0  0  0  0  0  0  0  0  0  0  0  0
    4.3838   -1.0600   16.3570 N   0  0  0  0  0  0  0  0  0  0  0  0
    3.8360   -0.3910   15.3315 C   0  0  0  0  0  0  0  0  0  0  0  0
    2.6494    2.1359   12.1286 C   0  0  0  0  0  0  0  0  0  0  0  0
    3.5584    2.6335   11.1783 C   0  0  0  0  0  0  0  0  0  0  0  0
    3.1269    3.4578   10.1469 C   0  0  0  0  0  0  0  0  0  0  0  0
    1.7725    3.8115   10.0354 C   0  0  0  0  0  0  0  0  0  0  0  0
    1.3343    4.6941    8.8847 C   0  0  0  0  0  0  0  0  0  0  0  0
    2.0989    5.5193    8.3952 O   0  0  0  0  0  0  0  0  0  0  0  0
    0.0978    4.4815    8.4258 N   0  0  0  0  0  0  0  0  0  0  0  0
    0.8524    3.3384   11.0121 C   0  0  0  0  0  0  0  0  0  0  0  0
   -0.6224    3.7518   10.9890 C   0  0  0  0  0  0  0  0  0  0  0  0
    1.2991    2.5101   12.0360 C   0  0  0  0  0  0  0  0  0  0  0  0
   -0.5507   -0.8158   14.1957 C   0  0  0  0  0  0  0  0  0  0  0  0
   -1.9415   -1.0842   14.0609 C   0  0  0  0  0  0  0  0  0  0  0  0
   -2.7452   -0.3406   13.2070 O   0  0  0  0  0  0  0  0  0  0  0  0
   -2.1924    0.4470   12.1700 C   0  0  0  0  0  0  0  0  0  0  0  0
   -5.3356   -3.2496   13.5811 H   0  0  0  0  0  0  0  0  0  0  0  0
   -3.7889   -4.0922   13.5603 H   0  0  0  0  0  0  0  0  0  0  0  0
   -4.0032   -2.5893   12.6399 H   0  0  0  0  0  0  0  0  0  0  0  0
   -2.2026   -3.6557   16.2609 H   0  0  0  0  0  0  0  0  0  0  0  0
    0.1866   -3.2024   16.5111 H   0  0  0  0  0  0  0  0  0  0  0  0
    1.9910   -1.9452   16.0564 H   0  0  0  0  0  0  0  0  0  0  0  0
    5.1687    1.9466   13.3246 H   0  0  0  0  0  0  0  0  0  0  0  0
    6.7729    0.9741   15.2789 H   0  0  0  0  0  0  0  0  0  0  0  0
    6.2395   -0.8158   17.3246 H   0  0  0  0  0  0  0  0  0  0  0  0
    4.5960    2.3576   11.2295 H   0  0  0  0  0  0  0  0  0  0  0  0
    3.8409    3.8102    9.4155 H   0  0  0  0  0  0  0  0  0  0  0  0
   -0.2537    5.0105    7.6461 H   0  0  0  0  0  0  0  0  0  0  0  0
   -0.4831    3.7720    8.8458 H   0  0  0  0  0  0  0  0  0  0  0  0
   -1.1053    3.5651   11.9422 H   0  0  0  0  0  0  0  0  0  0  0  0
   -1.1697    3.2135   10.2168 H   0  0  0  0  0  0  0  0  0  0  0  0
   -0.7255    4.8289   10.8204 H   0  0  0  0  0  0  0  0  0  0  0  0
    0.6002    2.1680   12.7776 H   0  0  0  0  0  0  0  0  0  0  0  0
   -0.1045   -0.0276   13.6335 H   0  0  0  0  0  0  0  0  0  0  0  0
   -3.0148    0.9031   11.6158 H   0  0  0  0  0  0  0  0  0  0  0  0
   -1.6244   -0.1596   11.4651 H   0  0  0  0  0  0  0  0  0  0  0  0
   -1.5752    1.2513   12.5580 H   0  0  0  0  0  0  0  0  0  0  0  0
  1  2  1  0  0  0  0
  1 31  1  0  0  0  0
  1 32  1  0  0  0  0
  1 33  1  0  0  0  0
  2  3  1  0  0  0  0
  3  4  2  0  0  0  0
  3 28  1  0  0  0  0
  4  5  1  0  0  0  0
  4 34  1  0  0  0  0
  5  6  2  0  0  0  0
  5 35  1  0  0  0  0
  6  7  1  0  0  0  0
  6 27  1  0  0  0  0
  7  8  1  0  0  0  0
  7 36  1  0  0  0  0
  8  9  2  0  0  0  0
  8 16  1  0  0  0  0
  9 10  1  0  0  0  0
 10 11  2  0  0  0  0
 10 17  1  0  0  0  0
 11 12  1  0  0  0  0
 11 37  1  0  0  0  0
 12 13  1  0  0  0  0
 12 16  1  0  0  0  0
 13 14  2  0  0  0  0
 13 38  1  0  0  0  0
 14 15  1  0  0  0  0
 14 39  1  0  0  0  0
 15 16  2  0  0  0  0
 17 18  2  0  0  0  0
 17 26  1  0  0  0  0
 18 19  1  0  0  0  0
 18 40  1  0  0  0  0
 19 20  2  0  0  0  0
 19 41  1  0  0  0  0
 20 21  1  0  0  0  0
 20 24  1  0  0  0  0
 21 22  2  0  0  0  0
 21 23  1  0  0  0  0
 23 42  1  0  0  0  0
 23 43  1  0  0  0  0
 24 25  1  0  0  0  0
 24 26  2  0  0  0  0
 25 44  1  0  0  0  0
 25 45  1  0  0  0  0
 25 46  1  0  0  0  0
 26 47  1  0  0  0  0
 27 28  2  0  0  0  0
 27 48  1  0  0  0  0
 28 29  1  0  0  0  0
 29 30  1  0  0  0  0
 30 49  1  0  0  0  0
 30 50  1  0  0  0  0
 30 51  1  0  0  0  0
M  END
>  <IC50[nM]>
64.1

$$$$
