CHEMBL3265033
 OpenBabel02152110423D
Structure written by MMmdl.
 54 59  0  0  1  0  0  0  0  0999 V2000
   -6.7377   -5.5954   13.7078 O   0  0  0  0  0  0  0  0  0  0  0  0
   -6.4109   -4.1827   13.9768 S   0  0  0  0  0  0  0  0  0  0  0  0
   -7.4853   -3.1691   13.9645 O   0  0  0  0  0  0  0  0  0  0  0  0
   -5.0718   -3.6553   12.8024 C   0  0  0  0  0  0  0  0  0  0  0  0
   -4.5093   -2.3051   13.2740 C   0  0  0  0  0  0  0  0  0  0  0  0
   -3.8452   -2.4085   14.5766 N   0  0  0  0  0  0  0  0  0  0  0  0
   -4.8019   -2.6733   15.6705 C   0  0  0  0  0  0  0  0  0  0  0  0
   -5.4613   -4.0603   15.5733 C   0  0  0  0  0  0  0  0  0  0  0  0
   -2.5026   -2.1121   14.7721 C   0  0  0  0  0  0  0  0  0  0  0  0
   -1.7498   -2.8472   15.6821 C   0  0  0  0  0  0  0  0  0  0  0  0
   -0.3947   -2.5947   15.8318 C   0  0  0  0  0  0  0  0  0  0  0  0
    0.2287   -1.5788   15.1039 C   0  0  0  0  0  0  0  0  0  0  0  0
    1.6093   -1.3648   15.3339 N   0  0  0  0  0  0  0  0  0  0  0  0
    2.5318   -0.4383   14.7801 C   0  0  0  0  0  0  0  0  0  0  0  0
    2.1634    0.3921   13.7540 N   0  0  0  0  0  0  0  0  0  0  0  0
    3.0974    1.2392   13.2246 C   0  0  0  0  0  0  0  0  0  0  0  0
    4.4044    1.2817   13.6944 C   0  0  0  0  0  0  0  0  0  0  0  0
    4.7423    0.4925   14.7592 N   0  0  0  0  0  0  0  0  0  0  0  0
    5.8954    0.3870   15.4778 C   0  0  0  0  0  0  0  0  0  0  0  0
    5.5990   -0.5412   16.5094 C   0  0  0  0  0  0  0  0  0  0  0  0
    4.3871   -1.0534   16.3565 N   0  0  0  0  0  0  0  0  0  0  0  0
    3.8359   -0.3945   15.3234 C   0  0  0  0  0  0  0  0  0  0  0  0
    2.6253    2.1534   12.1201 C   0  0  0  0  0  0  0  0  0  0  0  0
    3.5412    2.6427   11.1681 C   0  0  0  0  0  0  0  0  0  0  0  0
    3.1527    3.4644   10.1100 C   0  0  0  0  0  0  0  0  0  0  0  0
    1.8061    3.8184   10.0146 C   0  0  0  0  0  0  0  0  0  0  0  0
    0.9967    4.6031    9.1196 C   0  0  0  0  0  0  0  0  0  0  0  0
   -0.2439    4.6096    9.5190 N   0  0  0  0  0  0  0  0  0  0  0  0
   -0.3333    3.8812   10.6311 N   0  0  0  0  0  0  0  0  0  0  0  0
    0.8847    3.3487   10.9898 C   0  0  0  0  0  0  0  0  0  0  0  0
    1.2610    2.5149   12.0531 C   0  0  0  0  0  0  0  0  0  0  0  0
   -0.5302   -0.8124   14.2060 C   0  0  0  0  0  0  0  0  0  0  0  0
   -1.8875   -1.0872   14.0350 C   0  0  0  0  0  0  0  0  0  0  0  0
   -4.2870   -4.4115   12.7932 H   0  0  0  0  0  0  0  0  0  0  0  0
   -5.5077   -3.5615   11.8091 H   0  0  0  0  0  0  0  0  0  0  0  0
   -3.7877   -1.9706   12.5239 H   0  0  0  0  0  0  0  0  0  0  0  0
   -5.3210   -1.5976   13.2696 H   0  0  0  0  0  0  0  0  0  0  0  0
   -4.3225   -2.5661   16.6462 H   0  0  0  0  0  0  0  0  0  0  0  0
   -5.5749   -1.8980   15.6876 H   0  0  0  0  0  0  0  0  0  0  0  0
   -4.6888   -4.8310   15.5950 H   0  0  0  0  0  0  0  0  0  0  0  0
   -6.1589   -4.2289   16.3924 H   0  0  0  0  0  0  0  0  0  0  0  0
   -2.2114   -3.6432   16.2513 H   0  0  0  0  0  0  0  0  0  0  0  0
    0.1860   -3.1935   16.5202 H   0  0  0  0  0  0  0  0  0  0  0  0
    2.0087   -1.9701   16.0399 H   0  0  0  0  0  0  0  0  0  0  0  0
    5.1653    1.9492   13.3186 H   0  0  0  0  0  0  0  0  0  0  0  0
    6.7769    0.9748   15.2739 H   0  0  0  0  0  0  0  0  0  0  0  0
    6.2430   -0.8293   17.3244 H   0  0  0  0  0  0  0  0  0  0  0  0
    4.5805    2.3555   11.2394 H   0  0  0  0  0  0  0  0  0  0  0  0
    3.8720    3.8097    9.3836 H   0  0  0  0  0  0  0  0  0  0  0  0
    1.3028    5.1343    8.2328 H   0  0  0  0  0  0  0  0  0  0  0  0
   -1.2191    3.7739   11.0972 H   0  0  0  0  0  0  0  0  0  0  0  0
    0.5545    2.1699   12.7872 H   0  0  0  0  0  0  0  0  0  0  0  0
   -0.0886   -0.0159   13.6433 H   0  0  0  0  0  0  0  0  0  0  0  0
   -2.4699   -0.4961   13.3471 H   0  0  0  0  0  0  0  0  0  0  0  0
  1  2  2  0  0  0  0
  2  3  2  0  0  0  0
  2  4  1  0  0  0  0
  2  8  1  0  0  0  0
  4  5  1  0  0  0  0
  4 34  1  0  0  0  0
  4 35  1  0  0  0  0
  5  6  1  0  0  0  0
  5 36  1  0  0  0  0
  5 37  1  0  0  0  0
  6  7  1  0  0  0  0
  6  9  1  0  0  0  0
  7  8  1  0  0  0  0
  7 38  1  0  0  0  0
  7 39  1  0  0  0  0
  8 40  1  0  0  0  0
  8 41  1  0  0  0  0
  9 10  2  0  0  0  0
  9 33  1  0  0  0  0
 10 11  1  0  0  0  0
 10 42  1  0  0  0  0
 11 12  2  0  0  0  0
 11 43  1  0  0  0  0
 12 13  1  0  0  0  0
 12 32  1  0  0  0  0
 13 14  1  0  0  0  0
 13 44  1  0  0  0  0
 14 15  2  0  0  0  0
 14 22  1  0  0  0  0
 15 16  1  0  0  0  0
 16 17  2  0  0  0  0
 16 23  1  0  0  0  0
 17 18  1  0  0  0  0
 17 45  1  0  0  0  0
 18 19  1  0  0  0  0
 18 22  1  0  0  0  0
 19 20  2  0  0  0  0
 19 46  1  0  0  0  0
 20 21  1  0  0  0  0
 20 47  1  0  0  0  0
 21 22  2  0  0  0  0
 23 24  2  0  0  0  0
 23 31  1  0  0  0  0
 24 25  1  0  0  0  0
 24 48  1  0  0  0  0
 25 26  2  0  0  0  0
 25 49  1  0  0  0  0
 26 27  1  0  0  0  0
 26 30  1  0  0  0  0
 27 28  2  0  0  0  0
 27 50  1  0  0  0  0
 28 29  1  0  0  0  0
 29 30  1  0  0  0  0
 29 51  1  0  0  0  0
 30 31  2  0  0  0  0
 31 52  1  0  0  0  0
 32 33  2  0  0  0  0
 32 53  1  0  0  0  0
 33 54  1  0  0  0  0
M  END
>  <IC50[nM]>
2.1

$$$$
