CHEMBL3265000
 OpenBabel02152110423D
Structure written by MMmdl.
 67 71  0  0  1  0  0  0  0  0999 V2000
   -4.2555   -3.1029   13.5707 C   0  0  0  0  0  0  0  0  0  0  0  0
   -3.8740   -2.3535   14.7166 O   0  0  0  0  0  0  0  0  0  0  0  0
   -2.5261   -2.1057   14.8053 C   0  0  0  0  0  0  0  0  0  0  0  0
   -1.7497   -2.8673   15.6804 C   0  0  0  0  0  0  0  0  0  0  0  0
   -0.3863   -2.6106   15.8150 C   0  0  0  0  0  0  0  0  0  0  0  0
    0.2220   -1.5829   15.0890 C   0  0  0  0  0  0  0  0  0  0  0  0
    1.5930   -1.3491   15.3060 N   0  0  0  0  0  0  0  0  0  0  0  0
    2.5452   -0.4689   14.7536 C   0  0  0  0  0  0  0  0  0  0  0  0
    2.2178    0.3551   13.7190 N   0  0  0  0  0  0  0  0  0  0  0  0
    3.1227    1.2406   13.2181 C   0  0  0  0  0  0  0  0  0  0  0  0
    4.4207    1.3039   13.7175 C   0  0  0  0  0  0  0  0  0  0  0  0
    4.7482    0.4921   14.7654 N   0  0  0  0  0  0  0  0  0  0  0  0
    5.8898    0.3836   15.5035 C   0  0  0  0  0  0  0  0  0  0  0  0
    5.5715   -0.5089   16.5177 C   0  0  0  0  0  0  0  0  0  0  0  0
    4.3818   -1.0543   16.3920 N   0  0  0  0  0  0  0  0  0  0  0  0
    3.8330   -0.4170   15.3252 C   0  0  0  0  0  0  0  0  0  0  0  0
    2.6564    2.1560   12.1340 C   0  0  0  0  0  0  0  0  0  0  0  0
    3.5566    2.6280   11.1666 C   0  0  0  0  0  0  0  0  0  0  0  0
    3.1294    3.4499   10.1277 C   0  0  0  0  0  0  0  0  0  0  0  0
    1.7879    3.8078   10.0318 C   0  0  0  0  0  0  0  0  0  0  0  0
    0.8660    3.3707   10.9895 C   0  0  0  0  0  0  0  0  0  0  0  0
    1.3140    2.5576   12.0419 C   0  0  0  0  0  0  0  0  0  0  0  0
   -0.5783    3.7648   10.8956 C   0  0  0  0  0  0  0  0  0  0  0  0
   -1.2780    3.6594    9.8925 O   0  0  0  0  0  0  0  0  0  0  0  0
   -1.0343    4.2553   12.0485 N   0  0  0  0  0  0  0  0  0  0  0  0
   -2.3943    4.7285   12.2897 C   0  0  0  0  0  0  0  0  0  0  0  0
   -2.6544    5.5820   13.3553 C   0  0  0  0  0  0  0  0  0  0  0  0
   -3.9490    6.0325   13.5849 C   0  0  0  0  0  0  0  0  0  0  0  0
   -4.9835    5.6294   12.7489 C   0  0  0  0  0  0  0  0  0  0  0  0
   -4.7235    4.7759   11.6833 C   0  0  0  0  0  0  0  0  0  0  0  0
   -3.4289    4.3254   11.4537 C   0  0  0  0  0  0  0  0  0  0  0  0
   -6.3808    6.1155   12.9967 C   0  0  0  0  0  0  0  0  0  0  0  0
   -7.3335    5.7936   12.2928 O   0  0  0  0  0  0  0  0  0  0  0  0
   -6.3969    6.9226   14.0705 N   0  5  0  0  0  0  0  0  0  0  0  0
   -7.9316    7.5992   14.5333 S   0  0  0  0  0  0  0  0  0  0  0  0
   -8.7871    6.4947   14.9809 O   0  0  0  0  0  0  0  0  0  0  0  0
   -8.3522    8.5161   13.4681 O   0  0  0  0  0  0  0  0  0  0  0  0
   -7.5285    8.5816   15.9619 C   0  0  0  0  0  0  0  0  0  0  0  0
   -0.5664   -0.8256   14.2115 C   0  0  0  0  0  0  0  0  0  0  0  0
   -1.9389   -1.0760   14.0580 C   0  0  0  0  0  0  0  0  0  0  0  0
   -2.6991   -0.3052   13.2021 O   0  0  0  0  0  0  0  0  0  0  0  0
   -2.0020    0.6746   12.5251 C   0  0  0  0  0  0  0  0  0  0  0  0
   -3.7528   -4.0708   13.5508 H   0  0  0  0  0  0  0  0  0  0  0  0
   -4.0179   -2.5675   12.6505 H   0  0  0  0  0  0  0  0  0  0  0  0
   -5.3306   -3.2808   13.5889 H   0  0  0  0  0  0  0  0  0  0  0  0
   -2.2100   -3.6528   16.2607 H   0  0  0  0  0  0  0  0  0  0  0  0
    0.1911   -3.2101   16.5029 H   0  0  0  0  0  0  0  0  0  0  0  0
    2.0246   -1.8858   16.0475 H   0  0  0  0  0  0  0  0  0  0  0  0
    5.1701    2.0030   13.3719 H   0  0  0  0  0  0  0  0  0  0  0  0
    6.7656    0.9739   15.2897 H   0  0  0  0  0  0  0  0  0  0  0  0
    6.2089   -0.8330   17.3301 H   0  0  0  0  0  0  0  0  0  0  0  0
    4.5934    2.3309   11.2002 H   0  0  0  0  0  0  0  0  0  0  0  0
    3.8342    3.7939    9.3845 H   0  0  0  0  0  0  0  0  0  0  0  0
    1.4564    4.4350    9.2166 H   0  0  0  0  0  0  0  0  0  0  0  0
    0.6053    2.2130   12.7811 H   0  0  0  0  0  0  0  0  0  0  0  0
   -0.4948    4.3595   12.8959 H   0  0  0  0  0  0  0  0  0  0  0  0
   -1.8489    5.8959   14.0061 H   0  0  0  0  0  0  0  0  0  0  0  0
   -4.1515    6.6970   14.4145 H   0  0  0  0  0  0  0  0  0  0  0  0
   -5.5289    4.4620   11.0325 H   0  0  0  0  0  0  0  0  0  0  0  0
   -3.2264    3.6609   10.6241 H   0  0  0  0  0  0  0  0  0  0  0  0
   -8.4319    9.0596   16.3408 H   0  0  0  0  0  0  0  0  0  0  0  0
   -6.8023    9.3456   15.6843 H   0  0  0  0  0  0  0  0  0  0  0  0
   -7.1045    7.9412   16.7353 H   0  0  0  0  0  0  0  0  0  0  0  0
   -0.1547   -0.0168   13.6337 H   0  0  0  0  0  0  0  0  0  0  0  0
   -2.6851    1.2257   11.8787 H   0  0  0  0  0  0  0  0  0  0  0  0
   -1.2218    0.2131   11.9198 H   0  0  0  0  0  0  0  0  0  0  0  0
   -1.5485    1.3591   13.2420 H   0  0  0  0  0  0  0  0  0  0  0  0
  1  2  1  0  0  0  0
  1 43  1  0  0  0  0
  1 44  1  0  0  0  0
  1 45  1  0  0  0  0
  2  3  1  0  0  0  0
  3  4  2  0  0  0  0
  3 40  1  0  0  0  0
  4  5  1  0  0  0  0
  4 46  1  0  0  0  0
  5  6  2  0  0  0  0
  5 47  1  0  0  0  0
  6  7  1  0  0  0  0
  6 39  1  0  0  0  0
  7  8  1  0  0  0  0
  7 48  1  0  0  0  0
  8  9  2  0  0  0  0
  8 16  1  0  0  0  0
  9 10  1  0  0  0  0
 10 11  2  0  0  0  0
 10 17  1  0  0  0  0
 11 12  1  0  0  0  0
 11 49  1  0  0  0  0
 12 13  1  0  0  0  0
 12 16  1  0  0  0  0
 13 14  2  0  0  0  0
 13 50  1  0  0  0  0
 14 15  1  0  0  0  0
 14 51  1  0  0  0  0
 15 16  2  0  0  0  0
 17 18  2  0  0  0  0
 17 22  1  0  0  0  0
 18 19  1  0  0  0  0
 18 52  1  0  0  0  0
 19 20  2  0  0  0  0
 19 53  1  0  0  0  0
 20 21  1  0  0  0  0
 20 54  1  0  0  0  0
 21 22  2  0  0  0  0
 21 23  1  0  0  0  0
 22 55  1  0  0  0  0
 23 24  2  0  0  0  0
 23 25  1  0  0  0  0
 25 26  1  0  0  0  0
 25 56  1  0  0  0  0
 26 27  2  0  0  0  0
 26 31  1  0  0  0  0
 27 28  1  0  0  0  0
 27 57  1  0  0  0  0
 28 29  2  0  0  0  0
 28 58  1  0  0  0  0
 29 30  1  0  0  0  0
 29 32  1  0  0  0  0
 30 31  2  0  0  0  0
 30 59  1  0  0  0  0
 31 60  1  0  0  0  0
 32 33  2  0  0  0  0
 32 34  1  0  0  0  0
 34 35  1  0  0  0  0
 35 36  2  0  0  0  0
 35 37  2  0  0  0  0
 35 38  1  0  0  0  0
 38 61  1  0  0  0  0
 38 62  1  0  0  0  0
 38 63  1  0  0  0  0
 39 40  2  0  0  0  0
 39 64  1  0  0  0  0
 40 41  1  0  0  0  0
 41 42  1  0  0  0  0
 42 65  1  0  0  0  0
 42 66  1  0  0  0  0
 42 67  1  0  0  0  0
M  CHG  1  34  -1
M  END
>  <IC50[nM]>
2.2

$$$$
