@<TRIPOS>MOLECULE
CHEMBL3264997
 60 64 0 0 0
SMALL
GASTEIGER
****
Structure written by MMmdl.
@<TRIPOS>ATOM
      1 C          -4.2555   -3.1029   13.5707 C.3     1  LIG1        0.0790
      2 O          -3.8740   -2.3535   14.7166 O.3     1  LIG1       -0.4915
      3 C          -2.5261   -2.1057   14.8053 C.ar    1  LIG1        0.1616
      4 C          -1.7497   -2.8673   15.6804 C.ar    1  LIG1       -0.0146
      5 C          -0.3863   -2.6106   15.8150 C.ar    1  LIG1       -0.0368
      6 C           0.2220   -1.5829   15.0890 C.ar    1  LIG1        0.0362
      7 N           1.5930   -1.3491   15.3060 N.pl3   1  LIG1       -0.2964
      8 C           2.5452   -0.4689   14.7536 C.ar    1  LIG1        0.1669
      9 N           2.2178    0.3551   13.7190 N.ar    1  LIG1       -0.2267
     10 C           3.1227    1.2406   13.2181 C.ar    1  LIG1        0.0897
     11 C           4.4207    1.3039   13.7175 C.ar    1  LIG1        0.0373
     12 N           4.7482    0.4921   14.7654 N.ar    1  LIG1       -0.3018
     13 C           5.8898    0.3836   15.5035 C.ar    1  LIG1        0.0294
     14 C           5.5715   -0.5089   16.5177 C.ar    1  LIG1        0.0465
     15 N           4.3818   -1.0543   16.3920 N.ar    1  LIG1       -0.2330
     16 C           3.8330   -0.4170   15.3252 C.ar    1  LIG1        0.1784
     17 C           2.6564    2.1560   12.1340 C.ar    1  LIG1        0.0026
     18 C           3.5566    2.6280   11.1666 C.ar    1  LIG1       -0.0525
     19 C           3.1294    3.4499   10.1277 C.ar    1  LIG1       -0.0604
     20 C           1.7879    3.8078   10.0318 C.ar    1  LIG1       -0.0496
     21 C           0.8660    3.3707   10.9895 C.ar    1  LIG1        0.0376
     22 C           1.3140    2.5576   12.0419 C.ar    1  LIG1       -0.0404
     23 C          -0.5783    3.7648   10.8956 C.2     1  LIG1        0.2483
     24 O          -1.2610    3.7179    9.8765 O.2     1  LIG1       -0.2699
     25 N          -1.0553    4.1831   12.0683 N.am    1  LIG1       -0.2815
     26 C          -2.4212    4.6362   12.3150 C.ar    1  LIG1        0.0343
     27 C          -2.7024    5.4228   13.4257 C.ar    1  LIG1       -0.0404
     28 C          -4.0026    5.8541   13.6606 C.ar    1  LIG1       -0.0594
     29 C          -5.0215    5.4987   12.7847 C.ar    1  LIG1       -0.0528
     30 C          -4.7403    4.7121   11.6740 C.ar    1  LIG1       -0.0009
     31 C          -3.4401    4.2808   11.4391 C.ar    1  LIG1       -0.0316
     32 C          -5.8399    4.3286   10.7287 C.2     1  LIG1        0.0717
     33 O          -5.6116    3.6277    9.7316 O.co2   1  LIG1       -0.5446
     34 O          -6.9848    4.7354   10.9767 O.co2   1  LIG1       -0.5446
     35 C          -0.5664   -0.8256   14.2115 C.ar    1  LIG1        0.0049
     36 C          -1.9389   -1.0760   14.0580 C.ar    1  LIG1        0.1632
     37 O          -2.6991   -0.3052   13.2021 O.3     1  LIG1       -0.4914
     38 C          -2.0020    0.6746   12.5251 C.3     1  LIG1        0.0790
     39 H          -3.7528   -4.0708   13.5508 H       1  LIG1        0.0660
     40 H          -4.0179   -2.5675   12.6505 H       1  LIG1        0.0660
     41 H          -5.3306   -3.2808   13.5889 H       1  LIG1        0.0660
     42 H          -2.2100   -3.6528   16.2607 H       1  LIG1        0.0656
     43 H           0.1911   -3.2101   16.5029 H       1  LIG1        0.0637
     44 H           2.0246   -1.8858   16.0475 H       1  LIG1        0.1537
     45 H           5.1701    2.0030   13.3719 H       1  LIG1        0.0835
     46 H           6.7656    0.9739   15.2897 H       1  LIG1        0.0829
     47 H           6.2089   -0.8330   17.3301 H       1  LIG1        0.0845
     48 H           4.5934    2.3309   11.2002 H       1  LIG1        0.0624
     49 H           3.8342    3.7939    9.3845 H       1  LIG1        0.0618
     50 H           1.4564    4.4350    9.2166 H       1  LIG1        0.0625
     51 H           0.6053    2.2130   12.7811 H       1  LIG1        0.0632
     52 H          -0.5302    4.2377   12.9293 H       1  LIG1        0.1551
     53 H          -1.9091    5.6994   14.1077 H       1  LIG1        0.0636
     54 H          -4.2216    6.4665   14.5254 H       1  LIG1        0.0618
     55 H          -6.0338    5.8345   12.9676 H       1  LIG1        0.0624
     56 H          -3.2211    3.6684   10.5743 H       1  LIG1        0.0642
     57 H          -0.1547   -0.0168   13.6337 H       1  LIG1        0.0674
     58 H          -2.6851    1.2257   11.8787 H       1  LIG1        0.0660
     59 H          -1.2218    0.2131   11.9198 H       1  LIG1        0.0660
     60 H          -1.5485    1.3591   13.2420 H       1  LIG1        0.0660
@<TRIPOS>BOND
     1     1     2    1
     2     1    39    1
     3     1    40    1
     4     1    41    1
     5     2     3    1
     6     3     4   ar
     7     3    36   ar
     8     4     5   ar
     9     4    42    1
    10     5     6   ar
    11     5    43    1
    12     6     7    1
    13     6    35   ar
    14     7     8    1
    15     7    44    1
    16     8     9   ar
    17     8    16   ar
    18     9    10   ar
    19    10    11   ar
    20    10    17    1
    21    11    12   ar
    22    11    45    1
    23    12    13   ar
    24    12    16   ar
    25    13    14   ar
    26    13    46    1
    27    14    15   ar
    28    14    47    1
    29    15    16   ar
    30    17    18   ar
    31    17    22   ar
    32    18    19   ar
    33    18    48    1
    34    19    20   ar
    35    19    49    1
    36    20    21   ar
    37    20    50    1
    38    21    22   ar
    39    21    23    1
    40    22    51    1
    41    23    24    2
    42    23    25   am
    43    25    26    1
    44    25    52    1
    45    26    27   ar
    46    26    31   ar
    47    27    28   ar
    48    27    53    1
    49    28    29   ar
    50    28    54    1
    51    29    30   ar
    52    29    55    1
    53    30    31   ar
    54    30    32    1
    55    31    56    1
    56    32    33   ar
    57    32    34   ar
    58    35    36   ar
    59    35    57    1
    60    36    37    1
    61    37    38    1
    62    38    58    1
    63    38    59    1
    64    38    60    1
