@<TRIPOS>MOLECULE
CHEMBL3265010
 52 55 0 0 0
SMALL
GASTEIGER
****
Structure written by MMmdl.
@<TRIPOS>ATOM
      1 C          -4.2561   -3.1063   13.5675 C.3     1  LIG1        0.0790
      2 O          -3.8710   -2.3586   14.7108 O.3     1  LIG1       -0.4915
      3 C          -2.5237   -2.1120   14.8115 C.ar    1  LIG1        0.1616
      4 C          -1.7479   -2.8731   15.6758 C.ar    1  LIG1       -0.0146
      5 C          -0.3907   -2.6159   15.8114 C.ar    1  LIG1       -0.0368
      6 C           0.2188   -1.5872   15.0906 C.ar    1  LIG1        0.0362
      7 N           1.6061   -1.3639   15.3275 N.pl3   1  LIG1       -0.2964
      8 C           2.5365   -0.4468   14.7698 C.ar    1  LIG1        0.1669
      9 N           2.1734    0.3862   13.7543 N.ar    1  LIG1       -0.2267
     10 C           3.1090    1.2399   13.2318 C.ar    1  LIG1        0.0897
     11 C           4.4091    1.2828   13.7040 C.ar    1  LIG1        0.0373
     12 N           4.7384    0.4983   14.7655 N.ar    1  LIG1       -0.3018
     13 C           5.8943    0.3897   15.4869 C.ar    1  LIG1        0.0294
     14 C           5.5998   -0.5422   16.5164 C.ar    1  LIG1        0.0465
     15 N           4.3902   -1.0596   16.3683 N.ar    1  LIG1       -0.2330
     16 C           3.8368   -0.3957   15.3337 C.ar    1  LIG1        0.1784
     17 C           2.6487    2.1497   12.1257 C.ar    1  LIG1        0.0028
     18 C           3.5566    2.6396   11.1692 C.ar    1  LIG1       -0.0490
     19 C           3.1227    3.4570   10.1283 C.ar    1  LIG1       -0.0186
     20 C           1.7703    3.8176   10.0234 C.ar    1  LIG1        0.1322
     21 O           1.3292    4.6020    8.9846 O.3     1  LIG1       -0.4944
     22 C           2.1136    5.6875    8.5183 C.3     1  LIG1        0.0788
     23 C           0.8614    3.3613   10.9917 C.ar    1  LIG1        0.0786
     24 C           1.3049    2.5285   12.0328 C.ar    1  LIG1       -0.0369
     25 C          -0.6146    3.7607   10.8922 C.2     1  LIG1        0.2451
     26 O          -1.0753    4.3040    9.8978 O.2     1  LIG1       -0.2703
     27 N          -1.3527    3.4740   11.9629 N.am    1  LIG1       -0.3252
     28 C          -0.5555   -0.8165   14.1949 C.ar    1  LIG1        0.0049
     29 C          -1.9469   -1.0910   14.0631 C.ar    1  LIG1        0.1632
     30 O          -2.7598   -0.3552   13.2170 O.3     1  LIG1       -0.4914
     31 C          -2.2311    0.6451   12.3776 C.3     1  LIG1        0.0790
     32 H          -5.3364   -3.2553   13.5856 H       1  LIG1        0.0660
     33 H          -3.7839   -4.0901   13.5556 H       1  LIG1        0.0660
     34 H          -4.0101   -2.5845   12.6407 H       1  LIG1        0.0660
     35 H          -2.2034   -3.6660   16.2562 H       1  LIG1        0.0656
     36 H           0.1971   -3.2189   16.4942 H       1  LIG1        0.0637
     37 H           2.0037   -1.9659   16.0267 H       1  LIG1        0.1537
     38 H           5.1760    1.9362   13.3182 H       1  LIG1        0.0835
     39 H           6.7838    0.9709   15.2741 H       1  LIG1        0.0829
     40 H           6.2446   -0.8293   17.3211 H       1  LIG1        0.0845
     41 H           4.6039    2.3672   11.2287 H       1  LIG1        0.0625
     42 H           3.8363    3.8116    9.4024 H       1  LIG1        0.0654
     43 H           1.5354    6.2089    7.7566 H       1  LIG1        0.0660
     44 H           3.0460    5.3492    8.0564 H       1  LIG1        0.0660
     45 H           2.3213    6.4278    9.2942 H       1  LIG1        0.0660
     46 H           0.6057    2.1603   12.7711 H       1  LIG1        0.0633
     47 H          -2.3373    3.7022   11.9713 H       1  LIG1        0.1453
     48 H          -0.9395    3.0411   12.7709 H       1  LIG1        0.1453
     49 H          -0.1099   -0.0241   13.6351 H       1  LIG1        0.0674
     50 H          -3.0414    1.0912   11.7946 H       1  LIG1        0.0660
     51 H          -1.4766    0.2728   11.6770 H       1  LIG1        0.0660
     52 H          -1.8063    1.4100   13.0251 H       1  LIG1        0.0660
@<TRIPOS>BOND
     1     1     2    1
     2     1    32    1
     3     1    33    1
     4     1    34    1
     5     2     3    1
     6     3     4   ar
     7     3    29   ar
     8     4     5   ar
     9     4    35    1
    10     5     6   ar
    11     5    36    1
    12     6     7    1
    13     6    28   ar
    14     7     8    1
    15     7    37    1
    16     8     9   ar
    17     8    16   ar
    18     9    10   ar
    19    10    11   ar
    20    10    17    1
    21    11    12   ar
    22    11    38    1
    23    12    13   ar
    24    12    16   ar
    25    13    14   ar
    26    13    39    1
    27    14    15   ar
    28    14    40    1
    29    15    16   ar
    30    17    18   ar
    31    17    24   ar
    32    18    19   ar
    33    18    41    1
    34    19    20   ar
    35    19    42    1
    36    20    21    1
    37    20    23   ar
    38    21    22    1
    39    22    43    1
    40    22    44    1
    41    22    45    1
    42    23    24   ar
    43    23    25    1
    44    24    46    1
    45    25    26    2
    46    25    27   am
    47    27    47    1
    48    27    48    1
    49    28    29   ar
    50    28    49    1
    51    29    30    1
    52    30    31    1
    53    31    50    1
    54    31    51    1
    55    31    52    1
