CHEMBL3265032
 OpenBabel02152110423D
Structure written by MMmdl.
 52 57  0  0  1  0  0  0  0  0999 V2000
   -5.2528   -4.0279   13.4883 C   0  0  0  0  0  0  0  0  0  0  0  0
   -4.5590   -2.6369   13.4544 C   0  0  0  0  0  0  0  0  0  0  0  0
   -3.8919   -2.2470   14.7137 N   0  0  0  0  0  0  0  0  0  0  0  0
   -4.7198   -2.6287   15.8665 C   0  0  0  0  0  0  0  0  0  0  0  0
   -5.4261   -3.9885   15.8402 C   0  0  0  0  0  0  0  0  0  0  0  0
   -6.1177   -4.1508   14.6092 O   0  0  0  0  0  0  0  0  0  0  0  0
   -2.5101   -2.0763   14.8035 C   0  0  0  0  0  0  0  0  0  0  0  0
   -1.8815   -1.1097   14.0182 C   0  0  0  0  0  0  0  0  0  0  0  0
   -0.5196   -0.8466   14.1763 C   0  0  0  0  0  0  0  0  0  0  0  0
    0.2358   -1.5888   15.0999 C   0  0  0  0  0  0  0  0  0  0  0  0
    1.6095   -1.3595   15.3505 N   0  0  0  0  0  0  0  0  0  0  0  0
    2.5288   -0.4326   14.7915 C   0  0  0  0  0  0  0  0  0  0  0  0
    2.1515    0.4038   13.7773 N   0  0  0  0  0  0  0  0  0  0  0  0
    3.0856    1.2408   13.2315 C   0  0  0  0  0  0  0  0  0  0  0  0
    4.3919    1.2835   13.6955 C   0  0  0  0  0  0  0  0  0  0  0  0
    4.7346    0.4998   14.7545 N   0  0  0  0  0  0  0  0  0  0  0  0
    5.8922    0.3978   15.4788 C   0  0  0  0  0  0  0  0  0  0  0  0
    5.6049   -0.5481   16.4962 C   0  0  0  0  0  0  0  0  0  0  0  0
    4.3940   -1.0599   16.3510 N   0  0  0  0  0  0  0  0  0  0  0  0
    3.8344   -0.3880   15.3306 C   0  0  0  0  0  0  0  0  0  0  0  0
    2.6174    2.1451   12.1221 C   0  0  0  0  0  0  0  0  0  0  0  0
    3.5375    2.6360   11.1692 C   0  0  0  0  0  0  0  0  0  0  0  0
    3.1548    3.4584   10.1087 C   0  0  0  0  0  0  0  0  0  0  0  0
    1.8089    3.8176   10.0151 C   0  0  0  0  0  0  0  0  0  0  0  0
    0.9999    4.6108    9.1243 C   0  0  0  0  0  0  0  0  0  0  0  0
   -0.2405    4.6150    9.5301 N   0  0  0  0  0  0  0  0  0  0  0  0
   -0.3274    3.8782   10.6339 N   0  0  0  0  0  0  0  0  0  0  0  0
    0.8831    3.3398   10.9927 C   0  0  0  0  0  0  0  0  0  0  0  0
    1.2567    2.5006   12.0460 C   0  0  0  0  0  0  0  0  0  0  0  0
   -0.3865   -2.5955   15.8355 C   0  0  0  0  0  0  0  0  0  0  0  0
   -1.7498   -2.8337   15.7040 C   0  0  0  0  0  0  0  0  0  0  0  0
   -4.5051   -4.8201   13.5326 H   0  0  0  0  0  0  0  0  0  0  0  0
   -5.8382   -4.1961   12.5835 H   0  0  0  0  0  0  0  0  0  0  0  0
   -3.8574   -2.6184   12.6184 H   0  0  0  0  0  0  0  0  0  0  0  0
   -5.3171   -1.8948   13.2323 H   0  0  0  0  0  0  0  0  0  0  0  0
   -4.1680   -2.4954   16.7966 H   0  0  0  0  0  0  0  0  0  0  0  0
   -5.4757   -1.8452   15.9095 H   0  0  0  0  0  0  0  0  0  0  0  0
   -4.6783   -4.7685   15.9759 H   0  0  0  0  0  0  0  0  0  0  0  0
   -6.1259   -4.0493   16.6787 H   0  0  0  0  0  0  0  0  0  0  0  0
   -2.4632   -0.5270   13.3256 H   0  0  0  0  0  0  0  0  0  0  0  0
   -0.0772   -0.0608   13.5996 H   0  0  0  0  0  0  0  0  0  0  0  0
    2.0056   -1.9485   16.0686 H   0  0  0  0  0  0  0  0  0  0  0  0
    5.1492    1.9467   13.3043 H   0  0  0  0  0  0  0  0  0  0  0  0
    6.7687    0.9973   15.2711 H   0  0  0  0  0  0  0  0  0  0  0  0
    6.2551   -0.8495   17.2990 H   0  0  0  0  0  0  0  0  0  0  0  0
    4.5745    2.3502   11.2465 H   0  0  0  0  0  0  0  0  0  0  0  0
    3.8814    3.8031    9.3814 H   0  0  0  0  0  0  0  0  0  0  0  0
    1.3048    5.1494    8.2407 H   0  0  0  0  0  0  0  0  0  0  0  0
   -1.2122    3.7667   11.1066 H   0  0  0  0  0  0  0  0  0  0  0  0
    0.5434    2.1468   12.7781 H   0  0  0  0  0  0  0  0  0  0  0  0
    0.1974   -3.1804   16.5382 H   0  0  0  0  0  0  0  0  0  0  0  0
   -2.2129   -3.6048   16.3012 H   0  0  0  0  0  0  0  0  0  0  0  0
  1  2  1  0  0  0  0
  1  6  1  0  0  0  0
  1 32  1  0  0  0  0
  1 33  1  0  0  0  0
  2  3  1  0  0  0  0
  2 34  1  0  0  0  0
  2 35  1  0  0  0  0
  3  4  1  0  0  0  0
  3  7  1  0  0  0  0
  4  5  1  0  0  0  0
  4 36  1  0  0  0  0
  4 37  1  0  0  0  0
  5  6  1  0  0  0  0
  5 38  1  0  0  0  0
  5 39  1  0  0  0  0
  7  8  2  0  0  0  0
  7 31  1  0  0  0  0
  8  9  1  0  0  0  0
  8 40  1  0  0  0  0
  9 10  2  0  0  0  0
  9 41  1  0  0  0  0
 10 11  1  0  0  0  0
 10 30  1  0  0  0  0
 11 12  1  0  0  0  0
 11 42  1  0  0  0  0
 12 13  2  0  0  0  0
 12 20  1  0  0  0  0
 13 14  1  0  0  0  0
 14 15  2  0  0  0  0
 14 21  1  0  0  0  0
 15 16  1  0  0  0  0
 15 43  1  0  0  0  0
 16 17  1  0  0  0  0
 16 20  1  0  0  0  0
 17 18  2  0  0  0  0
 17 44  1  0  0  0  0
 18 19  1  0  0  0  0
 18 45  1  0  0  0  0
 19 20  2  0  0  0  0
 21 22  2  0  0  0  0
 21 29  1  0  0  0  0
 22 23  1  0  0  0  0
 22 46  1  0  0  0  0
 23 24  2  0  0  0  0
 23 47  1  0  0  0  0
 24 25  1  0  0  0  0
 24 28  1  0  0  0  0
 25 26  2  0  0  0  0
 25 48  1  0  0  0  0
 26 27  1  0  0  0  0
 27 28  1  0  0  0  0
 27 49  1  0  0  0  0
 28 29  2  0  0  0  0
 29 50  1  0  0  0  0
 30 31  2  0  0  0  0
 30 51  1  0  0  0  0
 31 52  1  0  0  0  0
M  END
>  <IC50[nM]>
10000

$$$$
