CHEMBL3264995
 OpenBabel02152110423D
Structure written by MMmdl.
 60 64  0  0  1  0  0  0  0  0999 V2000
   -4.2563   -3.1062   13.5664 C   0  0  0  0  0  0  0  0  0  0  0  0
   -3.8728   -2.3593   14.7106 O   0  0  0  0  0  0  0  0  0  0  0  0
   -2.5249   -2.1101   14.8131 C   0  0  0  0  0  0  0  0  0  0  0  0
   -1.7501   -2.8737   15.6749 C   0  0  0  0  0  0  0  0  0  0  0  0
   -0.3910   -2.6176   15.8092 C   0  0  0  0  0  0  0  0  0  0  0  0
    0.2227   -1.5905   15.0869 C   0  0  0  0  0  0  0  0  0  0  0  0
    1.6077   -1.3711   15.3228 N   0  0  0  0  0  0  0  0  0  0  0  0
    2.5318   -0.4406   14.7752 C   0  0  0  0  0  0  0  0  0  0  0  0
    2.1656    0.3957   13.7562 N   0  0  0  0  0  0  0  0  0  0  0  0
    3.1117    1.2369   13.2296 C   0  0  0  0  0  0  0  0  0  0  0  0
    4.4129    1.2745   13.7026 C   0  0  0  0  0  0  0  0  0  0  0  0
    4.7445    0.4891   14.7604 N   0  0  0  0  0  0  0  0  0  0  0  0
    5.8979    0.3839   15.4837 C   0  0  0  0  0  0  0  0  0  0  0  0
    5.5998   -0.5411   16.5157 C   0  0  0  0  0  0  0  0  0  0  0  0
    4.3864   -1.0537   16.3628 N   0  0  0  0  0  0  0  0  0  0  0  0
    3.8368   -0.3920   15.3291 C   0  0  0  0  0  0  0  0  0  0  0  0
    2.6550    2.1423   12.1326 C   0  0  0  0  0  0  0  0  0  0  0  0
    3.5650    2.6308   11.1723 C   0  0  0  0  0  0  0  0  0  0  0  0
    3.1221    3.4386   10.1249 C   0  0  0  0  0  0  0  0  0  0  0  0
    1.7757    3.7777   10.0261 C   0  0  0  0  0  0  0  0  0  0  0  0
    0.8680    3.3392   10.9975 C   0  0  0  0  0  0  0  0  0  0  0  0
    1.3092    2.5240   12.0437 C   0  0  0  0  0  0  0  0  0  0  0  0
   -0.5769    3.7618   10.9126 C   0  0  0  0  0  0  0  0  0  0  0  0
   -1.1111    3.9318    9.8164 O   0  0  0  0  0  0  0  0  0  0  0  0
   -1.1792    4.0031   12.1232 N   0  0  0  0  0  0  0  0  0  0  0  0
   -2.4941    4.5708   12.2428 C   0  0  0  0  0  0  0  0  0  0  0  0
   -3.4732    4.3742   11.2553 C   0  0  0  0  0  0  0  0  0  0  0  0
   -4.7281    4.9504   11.3975 C   0  0  0  0  0  0  0  0  0  0  0  0
   -5.0306    5.7263   12.5247 C   0  0  0  0  0  0  0  0  0  0  0  0
   -4.0556    5.9172   13.5169 C   0  0  0  0  0  0  0  0  0  0  0  0
   -2.7906    5.3372   13.3771 C   0  0  0  0  0  0  0  0  0  0  0  0
   -6.3945    6.3441   12.6680 C   0  0  0  0  0  0  0  0  0  0  0  0
   -7.2177    6.1258   11.7478 O   0  0  0  0  0  0  0  0  0  0  0  0
   -6.6066    7.0283   13.6967 O   0  5  0  0  0  0  0  0  0  0  0  0
   -0.5540   -0.8141   14.1957 C   0  0  0  0  0  0  0  0  0  0  0  0
   -1.9401   -1.0806   14.0641 C   0  0  0  0  0  0  0  0  0  0  0  0
   -2.7443   -0.3364   13.2160 O   0  0  0  0  0  0  0  0  0  0  0  0
   -2.2132    0.6462   12.3458 C   0  0  0  0  0  0  0  0  0  0  0  0
   -5.3361   -3.2549   13.5857 H   0  0  0  0  0  0  0  0  0  0  0  0
   -3.7839   -4.0892   13.5560 H   0  0  0  0  0  0  0  0  0  0  0  0
   -4.0102   -2.5844   12.6405 H   0  0  0  0  0  0  0  0  0  0  0  0
   -2.2076   -3.6642   16.2534 H   0  0  0  0  0  0  0  0  0  0  0  0
    0.1980   -3.2129   16.4943 H   0  0  0  0  0  0  0  0  0  0  0  0
    2.0049   -1.9718   16.0350 H   0  0  0  0  0  0  0  0  0  0  0  0
    5.1749    1.9434   13.3291 H   0  0  0  0  0  0  0  0  0  0  0  0
    6.7778    0.9747   15.2766 H   0  0  0  0  0  0  0  0  0  0  0  0
    6.2427   -0.8274   17.3331 H   0  0  0  0  0  0  0  0  0  0  0  0
    4.6093    2.3606   11.2287 H   0  0  0  0  0  0  0  0  0  0  0  0
    3.8254    3.8001    9.3864 H   0  0  0  0  0  0  0  0  0  0  0  0
    1.4370    4.4087    9.2133 H   0  0  0  0  0  0  0  0  0  0  0  0
    0.6084    2.1782   12.7883 H   0  0  0  0  0  0  0  0  0  0  0  0
   -0.6284    3.9274   12.9685 H   0  0  0  0  0  0  0  0  0  0  0  0
   -3.2732    3.7726   10.3909 H   0  0  0  0  0  0  0  0  0  0  0  0
   -5.4737    4.7957   10.6329 H   0  0  0  0  0  0  0  0  0  0  0  0
   -4.2825    6.5166   14.3929 H   0  0  0  0  0  0  0  0  0  0  0  0
   -2.0386    5.4914   14.1417 H   0  0  0  0  0  0  0  0  0  0  0  0
   -0.1130   -0.0178   13.6310 H   0  0  0  0  0  0  0  0  0  0  0  0
   -3.0333    1.0720   11.7646 H   0  0  0  0  0  0  0  0  0  0  0  0
   -1.4951    0.2209   11.6444 H   0  0  0  0  0  0  0  0  0  0  0  0
   -1.7591    1.4508   12.9195 H   0  0  0  0  0  0  0  0  0  0  0  0
  1  2  1  0  0  0  0
  1 39  1  0  0  0  0
  1 40  1  0  0  0  0
  1 41  1  0  0  0  0
  2  3  1  0  0  0  0
  3  4  2  0  0  0  0
  3 36  1  0  0  0  0
  4  5  1  0  0  0  0
  4 42  1  0  0  0  0
  5  6  2  0  0  0  0
  5 43  1  0  0  0  0
  6  7  1  0  0  0  0
  6 35  1  0  0  0  0
  7  8  1  0  0  0  0
  7 44  1  0  0  0  0
  8  9  2  0  0  0  0
  8 16  1  0  0  0  0
  9 10  1  0  0  0  0
 10 11  2  0  0  0  0
 10 17  1  0  0  0  0
 11 12  1  0  0  0  0
 11 45  1  0  0  0  0
 12 13  1  0  0  0  0
 12 16  1  0  0  0  0
 13 14  2  0  0  0  0
 13 46  1  0  0  0  0
 14 15  1  0  0  0  0
 14 47  1  0  0  0  0
 15 16  2  0  0  0  0
 17 18  2  0  0  0  0
 17 22  1  0  0  0  0
 18 19  1  0  0  0  0
 18 48  1  0  0  0  0
 19 20  2  0  0  0  0
 19 49  1  0  0  0  0
 20 21  1  0  0  0  0
 20 50  1  0  0  0  0
 21 22  2  0  0  0  0
 21 23  1  0  0  0  0
 22 51  1  0  0  0  0
 23 24  2  0  0  0  0
 23 25  1  0  0  0  0
 25 26  1  0  0  0  0
 25 52  1  0  0  0  0
 26 27  2  0  0  0  0
 26 31  1  0  0  0  0
 27 28  1  0  0  0  0
 27 53  1  0  0  0  0
 28 29  2  0  0  0  0
 28 54  1  0  0  0  0
 29 30  1  0  0  0  0
 29 32  1  0  0  0  0
 30 31  2  0  0  0  0
 30 55  1  0  0  0  0
 31 56  1  0  0  0  0
 32 33  2  0  0  0  0
 32 34  1  0  0  0  0
 35 36  2  0  0  0  0
 35 57  1  0  0  0  0
 36 37  1  0  0  0  0
 37 38  1  0  0  0  0
 38 58  1  0  0  0  0
 38 59  1  0  0  0  0
 38 60  1  0  0  0  0
M  CHG  1  34  -1
M  END
>  <IC50[nM]>
0.84

$$$$
