CHEMBL3265008
 OpenBabel02152110423D
Structure written by MMmdl.
 48 51  0  0  1  0  0  0  0  0999 V2000
   -4.2555   -3.1029   13.5707 C   0  0  0  0  0  0  0  0  0  0  0  0
   -3.8740   -2.3535   14.7166 O   0  0  0  0  0  0  0  0  0  0  0  0
   -2.5261   -2.1057   14.8053 C   0  0  0  0  0  0  0  0  0  0  0  0
   -1.7497   -2.8673   15.6804 C   0  0  0  0  0  0  0  0  0  0  0  0
   -0.3863   -2.6106   15.8150 C   0  0  0  0  0  0  0  0  0  0  0  0
    0.2220   -1.5829   15.0890 C   0  0  0  0  0  0  0  0  0  0  0  0
    1.5930   -1.3491   15.3060 N   0  0  0  0  0  0  0  0  0  0  0  0
    2.5452   -0.4689   14.7536 C   0  0  0  0  0  0  0  0  0  0  0  0
    2.2178    0.3551   13.7190 N   0  0  0  0  0  0  0  0  0  0  0  0
    3.1227    1.2406   13.2181 C   0  0  0  0  0  0  0  0  0  0  0  0
    4.4207    1.3039   13.7175 C   0  0  0  0  0  0  0  0  0  0  0  0
    4.7482    0.4921   14.7654 N   0  0  0  0  0  0  0  0  0  0  0  0
    5.8898    0.3836   15.5035 C   0  0  0  0  0  0  0  0  0  0  0  0
    5.5715   -0.5089   16.5177 C   0  0  0  0  0  0  0  0  0  0  0  0
    4.3818   -1.0543   16.3920 N   0  0  0  0  0  0  0  0  0  0  0  0
    3.8330   -0.4170   15.3252 C   0  0  0  0  0  0  0  0  0  0  0  0
    2.6564    2.1560   12.1340 C   0  0  0  0  0  0  0  0  0  0  0  0
    3.5566    2.6280   11.1666 C   0  0  0  0  0  0  0  0  0  0  0  0
    3.1294    3.4499   10.1277 C   0  0  0  0  0  0  0  0  0  0  0  0
    1.7879    3.8078   10.0318 C   0  0  0  0  0  0  0  0  0  0  0  0
    1.3747    4.5939    9.0109 F   0  0  0  0  0  0  0  0  0  0  0  0
    0.8660    3.3707   10.9895 C   0  0  0  0  0  0  0  0  0  0  0  0
    1.3140    2.5576   12.0419 C   0  0  0  0  0  0  0  0  0  0  0  0
   -0.5765    3.7694   10.8883 C   0  0  0  0  0  0  0  0  0  0  0  0
   -1.4448    3.1424   10.2886 O   0  0  0  0  0  0  0  0  0  0  0  0
   -0.8228    4.9083   11.5365 N   0  0  0  0  0  0  0  0  0  0  0  0
   -0.5664   -0.8256   14.2115 C   0  0  0  0  0  0  0  0  0  0  0  0
   -1.9389   -1.0760   14.0580 C   0  0  0  0  0  0  0  0  0  0  0  0
   -2.6996   -0.3055   13.2024 O   0  0  0  0  0  0  0  0  0  0  0  0
   -2.0030    0.6746   12.5250 C   0  0  0  0  0  0  0  0  0  0  0  0
   -5.3279   -3.2950   13.5978 H   0  0  0  0  0  0  0  0  0  0  0  0
   -3.7404   -4.0640   13.5409 H   0  0  0  0  0  0  0  0  0  0  0  0
   -4.0334   -2.5595   12.6514 H   0  0  0  0  0  0  0  0  0  0  0  0
   -2.2101   -3.6528   16.2607 H   0  0  0  0  0  0  0  0  0  0  0  0
    0.1909   -3.2102   16.5030 H   0  0  0  0  0  0  0  0  0  0  0  0
    2.0243   -1.8859   16.0479 H   0  0  0  0  0  0  0  0  0  0  0  0
    5.1721    2.0017   13.3734 H   0  0  0  0  0  0  0  0  0  0  0  0
    6.7662    0.9734   15.2903 H   0  0  0  0  0  0  0  0  0  0  0  0
    6.2091   -0.8330   17.3299 H   0  0  0  0  0  0  0  0  0  0  0  0
    4.5936    2.3316   11.1997 H   0  0  0  0  0  0  0  0  0  0  0  0
    3.8293    3.7971    9.3821 H   0  0  0  0  0  0  0  0  0  0  0  0
    0.6045    2.2130   12.7803 H   0  0  0  0  0  0  0  0  0  0  0  0
   -1.7221    5.3634   11.6017 H   0  0  0  0  0  0  0  0  0  0  0  0
   -0.1401    5.4552   12.0414 H   0  0  0  0  0  0  0  0  0  0  0  0
   -0.1548   -0.0169   13.6338 H   0  0  0  0  0  0  0  0  0  0  0  0
   -2.6866    1.2254   11.8789 H   0  0  0  0  0  0  0  0  0  0  0  0
   -1.2230    0.2132   11.9195 H   0  0  0  0  0  0  0  0  0  0  0  0
   -1.5495    1.3592   13.2418 H   0  0  0  0  0  0  0  0  0  0  0  0
  1  2  1  0  0  0  0
  1 31  1  0  0  0  0
  1 32  1  0  0  0  0
  1 33  1  0  0  0  0
  2  3  1  0  0  0  0
  3  4  2  0  0  0  0
  3 28  1  0  0  0  0
  4  5  1  0  0  0  0
  4 34  1  0  0  0  0
  5  6  2  0  0  0  0
  5 35  1  0  0  0  0
  6  7  1  0  0  0  0
  6 27  1  0  0  0  0
  7  8  1  0  0  0  0
  7 36  1  0  0  0  0
  8  9  2  0  0  0  0
  8 16  1  0  0  0  0
  9 10  1  0  0  0  0
 10 11  2  0  0  0  0
 10 17  1  0  0  0  0
 11 12  1  0  0  0  0
 11 37  1  0  0  0  0
 12 13  1  0  0  0  0
 12 16  1  0  0  0  0
 13 14  2  0  0  0  0
 13 38  1  0  0  0  0
 14 15  1  0  0  0  0
 14 39  1  0  0  0  0
 15 16  2  0  0  0  0
 17 18  2  0  0  0  0
 17 23  1  0  0  0  0
 18 19  1  0  0  0  0
 18 40  1  0  0  0  0
 19 20  2  0  0  0  0
 19 41  1  0  0  0  0
 20 21  1  0  0  0  0
 20 22  1  0  0  0  0
 22 23  2  0  0  0  0
 22 24  1  0  0  0  0
 23 42  1  0  0  0  0
 24 25  2  0  0  0  0
 24 26  1  0  0  0  0
 26 43  1  0  0  0  0
 26 44  1  0  0  0  0
 27 28  2  0  0  0  0
 27 45  1  0  0  0  0
 28 29  1  0  0  0  0
 29 30  1  0  0  0  0
 30 46  1  0  0  0  0
 30 47  1  0  0  0  0
 30 48  1  0  0  0  0
M  END
>  <IC50[nM]>
67.3

$$$$
