@<TRIPOS>MOLECULE
CHEMBL3265008
 48 51 0 0 0
SMALL
GASTEIGER
****
Structure written by MMmdl.
@<TRIPOS>ATOM
      1 C          -4.2555   -3.1029   13.5707 C.3     1  LIG1        0.0790
      2 O          -3.8740   -2.3535   14.7166 O.3     1  LIG1       -0.4915
      3 C          -2.5261   -2.1057   14.8053 C.ar    1  LIG1        0.1616
      4 C          -1.7497   -2.8673   15.6804 C.ar    1  LIG1       -0.0146
      5 C          -0.3863   -2.6106   15.8150 C.ar    1  LIG1       -0.0368
      6 C           0.2220   -1.5829   15.0890 C.ar    1  LIG1        0.0362
      7 N           1.5930   -1.3491   15.3060 N.pl3   1  LIG1       -0.2964
      8 C           2.5452   -0.4689   14.7536 C.ar    1  LIG1        0.1669
      9 N           2.2178    0.3551   13.7190 N.ar    1  LIG1       -0.2267
     10 C           3.1227    1.2406   13.2181 C.ar    1  LIG1        0.0897
     11 C           4.4207    1.3039   13.7175 C.ar    1  LIG1        0.0373
     12 N           4.7482    0.4921   14.7654 N.ar    1  LIG1       -0.3018
     13 C           5.8898    0.3836   15.5035 C.ar    1  LIG1        0.0294
     14 C           5.5715   -0.5089   16.5177 C.ar    1  LIG1        0.0465
     15 N           4.3818   -1.0543   16.3920 N.ar    1  LIG1       -0.2330
     16 C           3.8330   -0.4170   15.3252 C.ar    1  LIG1        0.1784
     17 C           2.6564    2.1560   12.1340 C.ar    1  LIG1        0.0027
     18 C           3.5566    2.6280   11.1666 C.ar    1  LIG1       -0.0498
     19 C           3.1294    3.4499   10.1277 C.ar    1  LIG1       -0.0251
     20 C           1.7879    3.8078   10.0318 C.ar    1  LIG1        0.1355
     21 F           1.3747    4.5939    9.0109 F       1  LIG1       -0.2047
     22 C           0.8660    3.3707   10.9895 C.ar    1  LIG1        0.0722
     23 C           1.3140    2.5576   12.0419 C.ar    1  LIG1       -0.0376
     24 C          -0.5765    3.7694   10.8883 C.2     1  LIG1        0.2443
     25 O          -1.4448    3.1424   10.2886 O.2     1  LIG1       -0.2703
     26 N          -0.8228    4.9083   11.5365 N.am    1  LIG1       -0.3253
     27 C          -0.5664   -0.8256   14.2115 C.ar    1  LIG1        0.0049
     28 C          -1.9389   -1.0760   14.0580 C.ar    1  LIG1        0.1632
     29 O          -2.6996   -0.3055   13.2024 O.3     1  LIG1       -0.4914
     30 C          -2.0030    0.6746   12.5250 C.3     1  LIG1        0.0790
     31 H          -5.3279   -3.2950   13.5978 H       1  LIG1        0.0660
     32 H          -3.7404   -4.0640   13.5409 H       1  LIG1        0.0660
     33 H          -4.0334   -2.5595   12.6514 H       1  LIG1        0.0660
     34 H          -2.2101   -3.6528   16.2607 H       1  LIG1        0.0656
     35 H           0.1909   -3.2102   16.5030 H       1  LIG1        0.0637
     36 H           2.0243   -1.8859   16.0479 H       1  LIG1        0.1537
     37 H           5.1721    2.0017   13.3734 H       1  LIG1        0.0835
     38 H           6.7662    0.9734   15.2903 H       1  LIG1        0.0829
     39 H           6.2091   -0.8330   17.3299 H       1  LIG1        0.0845
     40 H           4.5936    2.3316   11.1997 H       1  LIG1        0.0625
     41 H           3.8293    3.7971    9.3821 H       1  LIG1        0.0647
     42 H           0.6045    2.2130   12.7803 H       1  LIG1        0.0632
     43 H          -1.7221    5.3634   11.6017 H       1  LIG1        0.1453
     44 H          -0.1401    5.4552   12.0414 H       1  LIG1        0.1453
     45 H          -0.1548   -0.0169   13.6338 H       1  LIG1        0.0674
     46 H          -2.6866    1.2254   11.8789 H       1  LIG1        0.0660
     47 H          -1.2230    0.2132   11.9195 H       1  LIG1        0.0660
     48 H          -1.5495    1.3592   13.2418 H       1  LIG1        0.0660
@<TRIPOS>BOND
     1     1     2    1
     2     1    31    1
     3     1    32    1
     4     1    33    1
     5     2     3    1
     6     3     4   ar
     7     3    28   ar
     8     4     5   ar
     9     4    34    1
    10     5     6   ar
    11     5    35    1
    12     6     7    1
    13     6    27   ar
    14     7     8    1
    15     7    36    1
    16     8     9   ar
    17     8    16   ar
    18     9    10   ar
    19    10    11   ar
    20    10    17    1
    21    11    12   ar
    22    11    37    1
    23    12    13   ar
    24    12    16   ar
    25    13    14   ar
    26    13    38    1
    27    14    15   ar
    28    14    39    1
    29    15    16   ar
    30    17    18   ar
    31    17    23   ar
    32    18    19   ar
    33    18    40    1
    34    19    20   ar
    35    19    41    1
    36    20    21    1
    37    20    22   ar
    38    22    23   ar
    39    22    24    1
    40    23    42    1
    41    24    25    2
    42    24    26   am
    43    26    43    1
    44    26    44    1
    45    27    28   ar
    46    27    45    1
    47    28    29    1
    48    29    30    1
    49    30    46    1
    50    30    47    1
    51    30    48    1
