CHEMBL3264994
 OpenBabel02152110423D
Structure written by MMmdl.
 64 68  0  0  1  0  0  0  0  0999 V2000
   -4.1531   -3.4266   13.5369 C   0  0  0  0  0  0  0  0  0  0  0  0
   -3.9919   -2.3907   14.6629 C   0  0  0  0  0  0  0  0  0  0  0  0
   -4.6875   -1.0646   14.3101 C   0  0  0  0  0  0  0  0  0  0  0  0
   -4.4873   -2.9438   16.0103 C   0  0  0  0  0  0  0  0  0  0  0  0
   -2.5261   -2.1057   14.8053 C   0  0  0  0  0  0  0  0  0  0  0  0
   -1.9389   -1.0760   14.0580 C   0  0  0  0  0  0  0  0  0  0  0  0
   -0.5664   -0.8256   14.2115 C   0  0  0  0  0  0  0  0  0  0  0  0
    0.2220   -1.5829   15.0890 C   0  0  0  0  0  0  0  0  0  0  0  0
    1.5930   -1.3491   15.3060 N   0  0  0  0  0  0  0  0  0  0  0  0
    2.5452   -0.4689   14.7536 C   0  0  0  0  0  0  0  0  0  0  0  0
    2.2178    0.3551   13.7190 N   0  0  0  0  0  0  0  0  0  0  0  0
    3.1227    1.2406   13.2181 C   0  0  0  0  0  0  0  0  0  0  0  0
    4.4207    1.3039   13.7175 C   0  0  0  0  0  0  0  0  0  0  0  0
    4.7482    0.4921   14.7654 N   0  0  0  0  0  0  0  0  0  0  0  0
    5.8898    0.3836   15.5035 C   0  0  0  0  0  0  0  0  0  0  0  0
    5.5715   -0.5089   16.5177 C   0  0  0  0  0  0  0  0  0  0  0  0
    4.3818   -1.0543   16.3920 N   0  0  0  0  0  0  0  0  0  0  0  0
    3.8330   -0.4170   15.3252 C   0  0  0  0  0  0  0  0  0  0  0  0
    2.6564    2.1560   12.1340 C   0  0  0  0  0  0  0  0  0  0  0  0
    3.5566    2.6280   11.1666 C   0  0  0  0  0  0  0  0  0  0  0  0
    3.1294    3.4499   10.1277 C   0  0  0  0  0  0  0  0  0  0  0  0
    1.7879    3.8078   10.0318 C   0  0  0  0  0  0  0  0  0  0  0  0
    0.8660    3.3707   10.9895 C   0  0  0  0  0  0  0  0  0  0  0  0
   -0.5399    3.7537   10.8977 N   0  0  0  0  0  0  0  0  0  0  0  0
   -1.2550    4.3141   11.8736 C   0  0  0  0  0  0  0  0  0  0  0  0
   -0.8140    4.4931   13.0050 O   0  0  0  0  0  0  0  0  0  0  0  0
   -2.6333    4.6854   11.4124 C   0  0  0  0  0  0  0  0  0  0  0  0
   -3.5436    5.2295   12.3108 C   0  0  0  0  0  0  0  0  0  0  0  0
   -4.8206    5.5735   11.8835 C   0  0  0  0  0  0  0  0  0  0  0  0
   -5.1873    5.3735   10.5579 C   0  0  0  0  0  0  0  0  0  0  0  0
   -4.2770    4.8294    9.6596 C   0  0  0  0  0  0  0  0  0  0  0  0
   -3.0000    4.4854   10.0869 C   0  0  0  0  0  0  0  0  0  0  0  0
   -6.5655    5.7447   10.0968 C   0  0  0  0  0  0  0  0  0  0  0  0
   -6.9139    5.5749    8.9190 O   0  0  0  0  0  0  0  0  0  0  0  0
   -7.3451    6.2270   10.9318 O   0  5  0  0  0  0  0  0  0  0  0  0
    1.3140    2.5576   12.0419 C   0  0  0  0  0  0  0  0  0  0  0  0
   -0.3863   -2.6106   15.8150 C   0  0  0  0  0  0  0  0  0  0  0  0
   -1.7497   -2.8673   15.6804 C   0  0  0  0  0  0  0  0  0  0  0  0
   -5.2013   -3.6828   13.3771 H   0  0  0  0  0  0  0  0  0  0  0  0
   -3.6186   -4.3486   13.7684 H   0  0  0  0  0  0  0  0  0  0  0  0
   -3.7570   -3.0497   12.5933 H   0  0  0  0  0  0  0  0  0  0  0  0
   -4.2998   -0.6503   13.3787 H   0  0  0  0  0  0  0  0  0  0  0  0
   -4.5308   -0.3167   15.0883 H   0  0  0  0  0  0  0  0  0  0  0  0
   -5.7636   -1.1975   14.1906 H   0  0  0  0  0  0  0  0  0  0  0  0
   -5.5529   -3.1749   15.9796 H   0  0  0  0  0  0  0  0  0  0  0  0
   -4.3275   -2.2256   16.8153 H   0  0  0  0  0  0  0  0  0  0  0  0
   -3.9581   -3.8582   16.2809 H   0  0  0  0  0  0  0  0  0  0  0  0
   -2.5303   -0.4809   13.3780 H   0  0  0  0  0  0  0  0  0  0  0  0
   -0.1531   -0.0197   13.6305 H   0  0  0  0  0  0  0  0  0  0  0  0
    2.0242   -1.8881   16.0458 H   0  0  0  0  0  0  0  0  0  0  0  0
    5.1702    2.0027   13.3717 H   0  0  0  0  0  0  0  0  0  0  0  0
    6.7657    0.9737   15.2895 H   0  0  0  0  0  0  0  0  0  0  0  0
    6.2091   -0.8330   17.3300 H   0  0  0  0  0  0  0  0  0  0  0  0
    4.5934    2.3308   11.2002 H   0  0  0  0  0  0  0  0  0  0  0  0
    3.8342    3.7938    9.3845 H   0  0  0  0  0  0  0  0  0  0  0  0
    1.4564    4.4348    9.2165 H   0  0  0  0  0  0  0  0  0  0  0  0
   -0.8833    3.5257    9.9756 H   0  0  0  0  0  0  0  0  0  0  0  0
   -3.2580    5.3853   13.3428 H   0  0  0  0  0  0  0  0  0  0  0  0
   -5.5293    5.9971   12.5829 H   0  0  0  0  0  0  0  0  0  0  0  0
   -4.5625    4.6736    8.6276 H   0  0  0  0  0  0  0  0  0  0  0  0
   -2.2913    4.0618    9.3875 H   0  0  0  0  0  0  0  0  0  0  0  0
    0.6052    2.2121   12.7807 H   0  0  0  0  0  0  0  0  0  0  0  0
    0.1929   -3.2118   16.5002 H   0  0  0  0  0  0  0  0  0  0  0  0
   -2.2057   -3.6608   16.2538 H   0  0  0  0  0  0  0  0  0  0  0  0
  1  2  1  0  0  0  0
  1 39  1  0  0  0  0
  1 40  1  0  0  0  0
  1 41  1  0  0  0  0
  2  3  1  0  0  0  0
  2  4  1  0  0  0  0
  2  5  1  0  0  0  0
  3 42  1  0  0  0  0
  3 43  1  0  0  0  0
  3 44  1  0  0  0  0
  4 45  1  0  0  0  0
  4 46  1  0  0  0  0
  4 47  1  0  0  0  0
  5  6  2  0  0  0  0
  5 38  1  0  0  0  0
  6  7  1  0  0  0  0
  6 48  1  0  0  0  0
  7  8  2  0  0  0  0
  7 49  1  0  0  0  0
  8  9  1  0  0  0  0
  8 37  1  0  0  0  0
  9 10  1  0  0  0  0
  9 50  1  0  0  0  0
 10 11  2  0  0  0  0
 10 18  1  0  0  0  0
 11 12  1  0  0  0  0
 12 13  2  0  0  0  0
 12 19  1  0  0  0  0
 13 14  1  0  0  0  0
 13 51  1  0  0  0  0
 14 15  1  0  0  0  0
 14 18  1  0  0  0  0
 15 16  2  0  0  0  0
 15 52  1  0  0  0  0
 16 17  1  0  0  0  0
 16 53  1  0  0  0  0
 17 18  2  0  0  0  0
 19 20  2  0  0  0  0
 19 36  1  0  0  0  0
 20 21  1  0  0  0  0
 20 54  1  0  0  0  0
 21 22  2  0  0  0  0
 21 55  1  0  0  0  0
 22 23  1  0  0  0  0
 22 56  1  0  0  0  0
 23 24  1  0  0  0  0
 23 36  2  0  0  0  0
 24 25  1  0  0  0  0
 24 57  1  0  0  0  0
 25 26  2  0  0  0  0
 25 27  1  0  0  0  0
 27 28  2  0  0  0  0
 27 32  1  0  0  0  0
 28 29  1  0  0  0  0
 28 58  1  0  0  0  0
 29 30  2  0  0  0  0
 29 59  1  0  0  0  0
 30 31  1  0  0  0  0
 30 33  1  0  0  0  0
 31 32  2  0  0  0  0
 31 60  1  0  0  0  0
 32 61  1  0  0  0  0
 33 34  2  0  0  0  0
 33 35  1  0  0  0  0
 36 62  1  0  0  0  0
 37 38  2  0  0  0  0
 37 63  1  0  0  0  0
 38 64  1  0  0  0  0
M  CHG  1  35  -1
M  END
>  <IC50[nM]>
65

$$$$
