CHEMBL3265024
 OpenBabel02152110423D
Structure written by MMmdl.
 50 54  0  0  1  0  0  0  0  0999 V2000
   -4.2568   -3.1054   13.5684 C   0  0  0  0  0  0  0  0  0  0  0  0
   -3.8727   -2.3625   14.7149 O   0  0  0  0  0  0  0  0  0  0  0  0
   -2.5248   -2.1122   14.8155 C   0  0  0  0  0  0  0  0  0  0  0  0
   -1.7475   -2.8704   15.6805 C   0  0  0  0  0  0  0  0  0  0  0  0
   -0.3908   -2.6105   15.8142 C   0  0  0  0  0  0  0  0  0  0  0  0
    0.2212   -1.5850   15.0876 C   0  0  0  0  0  0  0  0  0  0  0  0
    1.6034   -1.3608   15.3283 N   0  0  0  0  0  0  0  0  0  0  0  0
    2.5312   -0.4403   14.7667 C   0  0  0  0  0  0  0  0  0  0  0  0
    2.1675    0.3842   13.7368 N   0  0  0  0  0  0  0  0  0  0  0  0
    3.1076    1.2383   13.2220 C   0  0  0  0  0  0  0  0  0  0  0  0
    4.4125    1.2788   13.7032 C   0  0  0  0  0  0  0  0  0  0  0  0
    4.7426    0.4894   14.7579 N   0  0  0  0  0  0  0  0  0  0  0  0
    5.8974    0.3808   15.4860 C   0  0  0  0  0  0  0  0  0  0  0  0
    5.5940   -0.5330   16.5234 C   0  0  0  0  0  0  0  0  0  0  0  0
    4.3802   -1.0455   16.3684 N   0  0  0  0  0  0  0  0  0  0  0  0
    3.8358   -0.3914   15.3289 C   0  0  0  0  0  0  0  0  0  0  0  0
    2.6478    2.1536   12.1231 C   0  0  0  0  0  0  0  0  0  0  0  0
    3.5652    2.6370   11.1626 C   0  0  0  0  0  0  0  0  0  0  0  0
    3.1327    3.4633   10.1244 C   0  0  0  0  0  0  0  0  0  0  0  0
    1.7965    3.8161   10.0403 C   0  0  0  0  0  0  0  0  0  0  0  0
    1.4003    4.6403    9.0163 O   0  0  0  0  0  0  0  0  0  0  0  0
    0.0245    4.4666    8.5995 C   0  0  0  0  0  0  0  0  0  0  0  0
   -1.0306    4.3224    9.7544 C   0  0  0  0  0  0  0  0  0  0  0  0
   -2.2095    4.6594    9.6693 O   0  0  0  0  0  0  0  0  0  0  0  0
   -0.4630    3.7540   10.8496 N   0  0  0  0  0  0  0  0  0  0  0  0
    0.8760    3.3777   10.9729 C   0  0  0  0  0  0  0  0  0  0  0  0
    1.2936    2.5512   12.0256 C   0  0  0  0  0  0  0  0  0  0  0  0
   -0.5545   -0.8186   14.1904 C   0  0  0  0  0  0  0  0  0  0  0  0
   -1.9414   -1.0869   14.0597 C   0  0  0  0  0  0  0  0  0  0  0  0
   -2.7479   -0.3495   13.2074 O   0  0  0  0  0  0  0  0  0  0  0  0
   -2.2257    0.6484   12.3503 C   0  0  0  0  0  0  0  0  0  0  0  0
   -5.3364   -3.2530   13.5862 H   0  0  0  0  0  0  0  0  0  0  0  0
   -3.7871   -4.0896   13.5579 H   0  0  0  0  0  0  0  0  0  0  0  0
   -4.0111   -2.5827   12.6426 H   0  0  0  0  0  0  0  0  0  0  0  0
   -2.2013   -3.6605   16.2619 H   0  0  0  0  0  0  0  0  0  0  0  0
    0.1985   -3.2029   16.5011 H   0  0  0  0  0  0  0  0  0  0  0  0
    1.9936   -1.9428   16.0565 H   0  0  0  0  0  0  0  0  0  0  0  0
    5.1741    1.9556   13.3388 H   0  0  0  0  0  0  0  0  0  0  0  0
    6.7812    0.9637   15.2765 H   0  0  0  0  0  0  0  0  0  0  0  0
    6.2349   -0.8119   17.3458 H   0  0  0  0  0  0  0  0  0  0  0  0
    4.6048    2.3508   11.2165 H   0  0  0  0  0  0  0  0  0  0  0  0
    3.8336    3.8213    9.3866 H   0  0  0  0  0  0  0  0  0  0  0  0
   -0.2884    5.2770    7.9386 H   0  0  0  0  0  0  0  0  0  0  0  0
   -0.0356    3.5427    8.0188 H   0  0  0  0  0  0  0  0  0  0  0  0
   -1.0932    3.5716   11.6149 H   0  0  0  0  0  0  0  0  0  0  0  0
    0.5806    2.2143   12.7659 H   0  0  0  0  0  0  0  0  0  0  0  0
   -0.1112   -0.0266   13.6222 H   0  0  0  0  0  0  0  0  0  0  0  0
   -3.0472    1.0725   11.7697 H   0  0  0  0  0  0  0  0  0  0  0  0
   -1.5042    0.2337   11.6479 H   0  0  0  0  0  0  0  0  0  0  0  0
   -1.7772    1.4543   12.9275 H   0  0  0  0  0  0  0  0  0  0  0  0
  1  2  1  0  0  0  0
  1 32  1  0  0  0  0
  1 33  1  0  0  0  0
  1 34  1  0  0  0  0
  2  3  1  0  0  0  0
  3  4  2  0  0  0  0
  3 29  1  0  0  0  0
  4  5  1  0  0  0  0
  4 35  1  0  0  0  0
  5  6  2  0  0  0  0
  5 36  1  0  0  0  0
  6  7  1  0  0  0  0
  6 28  1  0  0  0  0
  7  8  1  0  0  0  0
  7 37  1  0  0  0  0
  8  9  2  0  0  0  0
  8 16  1  0  0  0  0
  9 10  1  0  0  0  0
 10 11  2  0  0  0  0
 10 17  1  0  0  0  0
 11 12  1  0  0  0  0
 11 38  1  0  0  0  0
 12 13  1  0  0  0  0
 12 16  1  0  0  0  0
 13 14  2  0  0  0  0
 13 39  1  0  0  0  0
 14 15  1  0  0  0  0
 14 40  1  0  0  0  0
 15 16  2  0  0  0  0
 17 18  2  0  0  0  0
 17 27  1  0  0  0  0
 18 19  1  0  0  0  0
 18 41  1  0  0  0  0
 19 20  2  0  0  0  0
 19 42  1  0  0  0  0
 20 21  1  0  0  0  0
 20 26  1  0  0  0  0
 21 22  1  0  0  0  0
 22 23  1  0  0  0  0
 22 43  1  0  0  0  0
 22 44  1  0  0  0  0
 23 24  2  0  0  0  0
 23 25  1  0  0  0  0
 25 26  1  0  0  0  0
 25 45  1  0  0  0  0
 26 27  2  0  0  0  0
 27 46  1  0  0  0  0
 28 29  2  0  0  0  0
 28 47  1  0  0  0  0
 29 30  1  0  0  0  0
 30 31  1  0  0  0  0
 31 48  1  0  0  0  0
 31 49  1  0  0  0  0
 31 50  1  0  0  0  0
M  END
>  <IC50[nM]>
2.3

$$$$
