@<TRIPOS>MOLECULE
lig_p38a_3fmk
 46 49 0 0 0
SMALL
GASTEIGER
****
Structure written by MMmdl.
@<TRIPOS>ATOM
      1 C          33.6700   34.8100   23.4500 C.3     1  LIG1        0.0168
      2 C          34.8500   39.2100   21.6200 C.ar    1  LIG1        0.0419
      3 C          33.0500   38.9400   26.0900 C.3     1  LIG1        0.0417
      4 C          31.5900   39.4100   26.2500 C.3     1  LIG1        0.0809
      5 C          34.0400   38.9800   23.7400 C.ar    1  LIG1        0.2173
      6 C          34.5500   34.9800   21.1800 C.ar    1  LIG1        0.2951
      7 C          35.1700   35.7800   20.1300 C.ar    1  LIG1        0.1934
      8 C          35.2500   37.1300   20.2300 C.ar    1  LIG1       -0.0018
      9 C          34.8000   37.8100   21.4400 C.ar    1  LIG1        0.0394
     10 C          34.3100   37.0400   22.5100 C.ar    1  LIG1        0.1484
     11 N          33.6700   39.5700   24.9300 N.pl3   1  LIG1       -0.3090
     12 O          34.3300   33.7800   21.0200 O.2     1  LIG1       -0.2636
     13 N          34.2100   35.6200   22.3400 N.ar    1  LIG1       -0.2928
     14 N          33.9300   37.6500   23.6600 N.ar    1  LIG1       -0.1964
     15 N          34.4800   39.7900   22.7800 N.ar    1  LIG1       -0.2222
     16 C          33.8700   39.2400   27.3500 C.3     1  LIG1       -0.0448
     17 N          30.7400   38.9500   25.1600 N.ar    1  LIG1       -0.1616
     18 N          30.2600   39.7700   24.2100 N.ar    1  LIG1       -0.1390
     19 C          29.6000   38.8900   23.4700 C.ar    1  LIG1        0.1617
     20 N          29.6600   37.6200   23.9400 N.ar    1  LIG1       -0.1164
     21 N          30.3700   37.6600   25.0200 N.ar    1  LIG1       -0.0463
     22 H          33.5000   35.3800   24.3600 H       1  LIG1        0.0457
     23 H          32.7200   34.3600   23.1500 H       1  LIG1        0.0457
     24 H          34.3500   34.0000   23.7300 H       1  LIG1        0.0457
     25 H          35.2200   39.8600   20.8400 H       1  LIG1        0.0838
     26 H          33.0600   37.8600   25.9500 H       1  LIG1        0.0514
     27 H          31.1800   39.0200   27.1800 H       1  LIG1        0.0545
     28 H          31.5500   40.4900   26.3000 H       1  LIG1        0.0545
     29 H          35.7000   37.7300   19.4600 H       1  LIG1        0.0664
     30 H          33.7600   40.5700   24.9600 H       1  LIG1        0.1492
     31 H          34.9100   38.9300   27.2300 H       1  LIG1        0.0248
     32 H          33.8600   40.3000   27.5900 H       1  LIG1        0.0248
     33 H          33.4700   38.7000   28.2100 H       1  LIG1        0.0248
     34 H          29.0400   39.1700   22.5900 H       1  LIG1        0.1085
     35 O          35.6600   35.1800   19.0100 O.3     1  LIG1       -0.4477
     36 C          37.2600   38.0600   16.4500 C.ar    1  LIG1        0.1264
     37 C          38.0500   37.5200   17.4800 C.ar    1  LIG1        0.0125
     38 C          37.5100   36.5500   18.3500 C.ar    1  LIG1        0.1681
     39 C          36.1900   36.1200   18.1700 C.ar    1  LIG1        0.1639
     40 C          35.4000   36.6500   17.1400 C.ar    1  LIG1       -0.0137
     41 C          35.9400   37.6200   16.2800 C.ar    1  LIG1       -0.0228
     42 F          37.7700   38.9800   15.6300 F       1  LIG1       -0.2054
     43 H          39.0900   37.8600   17.6200 H       1  LIG1        0.0676
     44 F          38.2600   36.0400   19.3200 F       1  LIG1       -0.2015
     45 H          34.3600   36.3100   17.0100 H       1  LIG1        0.0656
     46 H          35.3200   38.0500   15.4700 H       1  LIG1        0.0647
@<TRIPOS>BOND
     1     1    13    1
     2     1    22    1
     3     1    23    1
     4     1    24    1
     5     2     9   ar
     6     2    15   ar
     7     2    25    1
     8     3     4    1
     9     3    11    1
    10     3    16    1
    11     3    26    1
    12     4    17    1
    13     4    27    1
    14     4    28    1
    15     5    11    1
    16     5    14   ar
    17     5    15   ar
    18     6     7   ar
    19     6    12    2
    20     6    13   ar
    21     7     8   ar
    22     7    35    1
    23     8     9   ar
    24     8    29    1
    25     9    10   ar
    26    10    13   ar
    27    10    14   ar
    28    11    30    1
    29    16    31    1
    30    16    32    1
    31    16    33    1
    32    17    18   ar
    33    17    21   ar
    34    18    19   ar
    35    19    20   ar
    36    19    34    1
    37    20    21   ar
    38    35    39    1
    39    36    37   ar
    40    36    41   ar
    41    36    42    1
    42    37    38   ar
    43    37    43    1
    44    38    39   ar
    45    38    44    1
    46    39    40   ar
    47    40    41   ar
    48    40    45    1
    49    41    46    1
