@<TRIPOS>MOLECULE
lig_p38a_2v
 35 37 0 0 0
SMALL
GASTEIGER
****
Structure written by MMmdl.
@<TRIPOS>ATOM
      1 C          34.5500   34.9800   21.1800 C.ar    1  LIG1        0.2951
      2 C          34.0400   38.9800   23.7400 C.ar    1  LIG1        0.2168
      3 C          33.1600   38.9300   26.1300 C.3     1  LIG1        0.0003
      4 C          34.8000   37.8100   21.4400 C.ar    1  LIG1        0.0394
      5 C          35.2500   37.1300   20.2300 C.ar    1  LIG1       -0.0018
      6 C          34.3100   37.0400   22.5100 C.ar    1  LIG1        0.1484
      7 C          34.8500   39.2100   21.6200 C.ar    1  LIG1        0.0419
      8 C          35.1700   35.7800   20.1300 C.ar    1  LIG1        0.1934
      9 C          33.6700   34.8300   23.4600 C.3     1  LIG1        0.0168
     10 N          34.4800   39.7900   22.7800 N.ar    1  LIG1       -0.2222
     11 O          34.3300   33.7800   21.0200 O.2     1  LIG1       -0.2636
     12 N          34.2100   35.6200   22.3400 N.ar    1  LIG1       -0.2928
     13 N          33.9300   37.6500   23.6600 N.ar    1  LIG1       -0.1964
     14 N          33.6700   39.5700   24.9300 N.pl3   1  LIG1       -0.3165
     15 H          33.4900   37.8900   26.1500 H       1  LIG1        0.0426
     16 H          35.7000   37.7400   19.4700 H       1  LIG1        0.0664
     17 H          35.2200   39.8600   20.8400 H       1  LIG1        0.0838
     18 H          33.4500   35.4700   24.3200 H       1  LIG1        0.0457
     19 H          32.7400   34.3500   23.1600 H       1  LIG1        0.0457
     20 H          34.3400   34.0600   23.8300 H       1  LIG1        0.0457
     21 H          33.7900   40.5700   24.9700 H       1  LIG1        0.1486
     22 H          33.5300   39.4600   27.0100 H       1  LIG1        0.0426
     23 H          32.0700   38.9700   26.1300 H       1  LIG1        0.0426
     24 O          35.6600   35.1800   19.0100 O.3     1  LIG1       -0.4477
     25 C          37.2600   38.0600   16.4500 C.ar    1  LIG1        0.1264
     26 C          38.0800   37.4500   17.4200 C.ar    1  LIG1        0.0125
     27 C          37.5400   36.4800   18.2800 C.ar    1  LIG1        0.1681
     28 C          36.1900   36.1200   18.1700 C.ar    1  LIG1        0.1639
     29 C          35.3700   36.7300   17.2100 C.ar    1  LIG1       -0.0137
     30 C          35.9100   37.7000   16.3500 C.ar    1  LIG1       -0.0228
     31 F          37.7700   38.9800   15.6300 F       1  LIG1       -0.2054
     32 H          39.1400   37.7300   17.5000 H       1  LIG1        0.0676
     33 F          38.3100   35.9000   19.2000 F       1  LIG1       -0.2015
     34 H          34.3100   36.4400   17.1200 H       1  LIG1        0.0656
     35 H          35.2700   38.1800   15.5900 H       1  LIG1        0.0647
@<TRIPOS>BOND
     1     1     8   ar
     2     1    11    2
     3     1    12   ar
     4     2    10   ar
     5     2    13   ar
     6     2    14    1
     7     3    14    1
     8     3    15    1
     9     3    22    1
    10     3    23    1
    11     4     5   ar
    12     4     6   ar
    13     4     7   ar
    14     5     8   ar
    15     5    16    1
    16     6    12   ar
    17     6    13   ar
    18     7    10   ar
    19     7    17    1
    20     8    24    1
    21     9    12    1
    22     9    18    1
    23     9    19    1
    24     9    20    1
    25    14    21    1
    26    24    28    1
    27    25    26   ar
    28    25    30   ar
    29    25    31    1
    30    26    27   ar
    31    26    32    1
    32    27    28   ar
    33    27    33    1
    34    28    29   ar
    35    29    30   ar
    36    29    34    1
    37    30    35    1
