@<TRIPOS>MOLECULE
lig_p38a_2o
 55 58 0 0 0
SMALL
GASTEIGER
****
Structure written by MMmdl.
@<TRIPOS>ATOM
      1 C          34.5500   34.9800   21.1800 C.ar    1  LIG1        0.2954
      2 C          34.0400   38.9800   23.7400 C.ar    1  LIG1        0.2173
      3 C          34.8000   37.8100   21.4400 C.ar    1  LIG1        0.0394
      4 C          35.2500   37.1300   20.2300 C.ar    1  LIG1       -0.0018
      5 C          34.3100   37.0400   22.5100 C.ar    1  LIG1        0.1487
      6 C          34.8500   39.2100   21.6200 C.ar    1  LIG1        0.0419
      7 C          35.1700   35.7800   20.1300 C.ar    1  LIG1        0.1935
      8 N          34.4800   39.7900   22.7800 N.ar    1  LIG1       -0.2222
      9 O          34.3300   33.7800   21.0200 O.2     1  LIG1       -0.2636
     10 N          34.2100   35.6200   22.3400 N.ar    1  LIG1       -0.2881
     11 N          33.9300   37.6500   23.6600 N.ar    1  LIG1       -0.1964
     12 N          33.6700   39.5700   24.9300 N.pl3   1  LIG1       -0.3104
     13 H          35.7000   37.7400   19.4700 H       1  LIG1        0.0664
     14 H          35.2200   39.8600   20.8400 H       1  LIG1        0.0838
     15 H          33.7900   40.5700   24.9700 H       1  LIG1        0.1492
     16 C          33.6800   34.8400   23.4400 C.3     1  LIG1        0.0475
     17 H          33.4600   35.5200   24.3100 H       1  LIG1        0.0509
     18 H          32.7300   34.3400   23.1200 H       1  LIG1        0.0509
     19 C          34.7000   33.7900   23.8700 C.3     1  LIG1        0.0835
     20 H          34.9100   33.1100   23.0100 H       1  LIG1        0.0517
     21 H          35.6400   34.3000   24.1900 H       1  LIG1        0.0517
     22 S          34.1500   32.9900   25.0100 S.O2    1  LIG1       -0.0321
     23 O          33.8700   33.9200   26.1300 O.2     1  LIG1       -0.1746
     24 O          35.0900   31.8800   25.3000 O.2     1  LIG1       -0.1746
     25 C          32.8400   32.4000   24.5600 C.3     1  LIG1        0.0545
     26 H          33.0300   31.6900   23.7200 H       1  LIG1        0.0464
     27 H          32.3800   31.8400   25.4200 H       1  LIG1        0.0464
     28 H          32.1500   33.2100   24.2300 H       1  LIG1        0.0464
     29 C          31.1500   38.3500   27.5000 C.3     1  LIG1        0.0493
     30 C          31.7100   39.1700   26.3300 C.3     1  LIG1       -0.0109
     31 C          33.1500   38.7500   26.0100 C.3     1  LIG1        0.0275
     32 C          34.0500   38.8900   27.2500 C.3     1  LIG1       -0.0109
     33 C          33.4900   38.0700   28.4200 C.3     1  LIG1        0.0493
     34 O          32.0400   38.4900   28.7400 O.3     1  LIG1       -0.3796
     35 H          31.0800   37.2700   27.2100 H       1  LIG1        0.0560
     36 H          30.1100   38.6900   27.7400 H       1  LIG1        0.0560
     37 H          31.6800   40.2500   26.5800 H       1  LIG1        0.0305
     38 H          31.0600   39.0300   25.4200 H       1  LIG1        0.0305
     39 H          33.1700   37.6900   25.6500 H       1  LIG1        0.0500
     40 H          35.0900   38.5500   27.0100 H       1  LIG1        0.0305
     41 H          34.1100   39.9700   27.5400 H       1  LIG1        0.0305
     42 H          33.5200   36.9900   28.1700 H       1  LIG1        0.0560
     43 H          34.1300   38.2100   29.3300 H       1  LIG1        0.0560
     44 O          35.6600   35.1800   19.0100 O.3     1  LIG1       -0.4477
     45 C          37.2600   38.0600   16.4500 C.ar    1  LIG1        0.1264
     46 C          38.0600   37.4800   17.4500 C.ar    1  LIG1        0.0125
     47 C          37.5200   36.5100   18.3100 C.ar    1  LIG1        0.1681
     48 C          36.1900   36.1200   18.1700 C.ar    1  LIG1        0.1639
     49 C          35.3800   36.6900   17.1700 C.ar    1  LIG1       -0.0137
     50 C          35.9200   37.6600   16.3100 C.ar    1  LIG1       -0.0228
     51 F          37.7700   38.9800   15.6300 F       1  LIG1       -0.2054
     52 H          39.1200   37.8000   17.5600 H       1  LIG1        0.0676
     53 F          38.2900   35.9700   19.2600 F       1  LIG1       -0.2015
     54 H          34.3300   36.3800   17.0600 H       1  LIG1        0.0656
     55 H          35.2900   38.1100   15.5300 H       1  LIG1        0.0647
@<TRIPOS>BOND
     1     1     7   ar
     2     1     9    2
     3     1    10   ar
     4     2     8   ar
     5     2    11   ar
     6     2    12    1
     7     3     4   ar
     8     3     5   ar
     9     3     6   ar
    10     4     7   ar
    11     4    13    1
    12     5    10   ar
    13     5    11   ar
    14     6     8   ar
    15     6    14    1
    16     7    44    1
    17    10    16    1
    18    12    15    1
    19    12    31    1
    20    16    17    1
    21    16    18    1
    22    16    19    1
    23    19    20    1
    24    19    21    1
    25    19    22    1
    26    22    23    2
    27    22    24    2
    28    22    25    1
    29    25    26    1
    30    25    27    1
    31    25    28    1
    32    29    30    1
    33    29    34    1
    34    29    35    1
    35    29    36    1
    36    30    31    1
    37    30    37    1
    38    30    38    1
    39    31    32    1
    40    31    39    1
    41    32    33    1
    42    32    40    1
    43    32    41    1
    44    33    34    1
    45    33    42    1
    46    33    43    1
    47    44    48    1
    48    45    46   ar
    49    45    50   ar
    50    45    51    1
    51    46    47   ar
    52    46    52    1
    53    47    48   ar
    54    47    53    1
    55    48    49   ar
    56    49    50   ar
    57    49    54    1
    58    50    55    1
