@<TRIPOS>MOLECULE
lig_p38a_3flz
 46 49 0 0 0
SMALL
GASTEIGER
****
Structure written by MMmdl.
@<TRIPOS>ATOM
      1 C          35.2500   37.1300   20.2300 C.ar    1  LIG1       -0.0018
      2 C          34.3100   37.0400   22.5100 C.ar    1  LIG1        0.1484
      3 C          34.8000   37.8100   21.4400 C.ar    1  LIG1        0.0394
      4 C          34.8500   39.2100   21.6200 C.ar    1  LIG1        0.0419
      5 C          34.0400   38.9800   23.7400 C.ar    1  LIG1        0.2173
      6 C          35.1700   35.7800   20.1300 C.ar    1  LIG1        0.1933
      7 C          33.6300   34.8400   23.4300 C.3     1  LIG1        0.0168
      8 O          34.3300   33.7800   21.0200 O.2     1  LIG1       -0.2636
      9 C          34.5500   34.9800   21.1800 C.ar    1  LIG1        0.2951
     10 N          34.4800   39.7900   22.7800 N.ar    1  LIG1       -0.2222
     11 N          34.2100   35.6200   22.3400 N.ar    1  LIG1       -0.2928
     12 N          33.9300   37.6500   23.6600 N.ar    1  LIG1       -0.1964
     13 N          33.6700   39.5700   24.9300 N.pl3   1  LIG1       -0.3104
     14 H          35.6900   37.7200   19.4400 H       1  LIG1        0.0664
     15 H          35.2200   39.8600   20.8400 H       1  LIG1        0.0838
     16 H          34.3400   34.0700   23.7500 H       1  LIG1        0.0457
     17 H          33.4000   35.5000   24.2700 H       1  LIG1        0.0457
     18 H          32.7100   34.3600   23.0800 H       1  LIG1        0.0457
     19 H          33.7300   40.5700   24.9800 H       1  LIG1        0.1492
     20 C          31.2800   38.2600   27.5900 C.3     1  LIG1        0.0493
     21 C          31.7600   39.0900   26.3800 C.3     1  LIG1       -0.0109
     22 C          33.2200   38.7400   26.0300 C.3     1  LIG1        0.0275
     23 C          34.1400   38.9500   27.2500 C.3     1  LIG1       -0.0109
     24 C          33.6600   38.1200   28.4500 C.3     1  LIG1        0.0493
     25 O          32.2000   38.4700   28.8000 O.3     1  LIG1       -0.3796
     26 H          31.2600   37.1800   27.3100 H       1  LIG1        0.0560
     27 H          30.2300   38.5500   27.8500 H       1  LIG1        0.0560
     28 H          31.6900   40.1800   26.6200 H       1  LIG1        0.0305
     29 H          31.1100   38.9000   25.5000 H       1  LIG1        0.0305
     30 H          33.2800   37.6800   25.7000 H       1  LIG1        0.0500
     31 H          35.1900   38.6600   26.9900 H       1  LIG1        0.0305
     32 H          34.1600   40.0300   27.5200 H       1  LIG1        0.0305
     33 H          33.7300   37.0400   28.2100 H       1  LIG1        0.0560
     34 H          34.3100   38.3100   29.3300 H       1  LIG1        0.0560
     35 O          35.6600   35.1500   19.0200 O.3     1  LIG1       -0.4506
     36 C          37.2400   37.9900   16.3900 C.ar    1  LIG1       -0.0615
     37 C          35.8900   37.6200   16.3000 C.ar    1  LIG1       -0.0583
     38 C          35.3500   36.6600   17.1800 C.ar    1  LIG1       -0.0193
     39 C          36.1700   36.0800   18.1600 C.ar    1  LIG1        0.1287
     40 C          37.5200   36.4500   18.2600 C.ar    1  LIG1       -0.0193
     41 C          38.0600   37.4100   17.3800 C.ar    1  LIG1       -0.0583
     42 H          37.6500   38.7400   15.7000 H       1  LIG1        0.0618
     43 H          35.2400   38.0700   15.5200 H       1  LIG1        0.0619
     44 H          34.2900   36.3700   17.1000 H       1  LIG1        0.0654
     45 H          38.1700   35.9900   19.0300 H       1  LIG1        0.0654
     46 H          39.1200   37.7000   17.4500 H       1  LIG1        0.0619
@<TRIPOS>BOND
     1     1     3   ar
     2     1     6   ar
     3     1    14    1
     4     2     3   ar
     5     2    11   ar
     6     2    12   ar
     7     3     4   ar
     8     4    10   ar
     9     4    15    1
    10     5    10   ar
    11     5    12   ar
    12     5    13    1
    13     6     9   ar
    14     6    35    1
    15     7    11    1
    16     7    16    1
    17     7    17    1
    18     7    18    1
    19     8     9    2
    20     9    11   ar
    21    13    19    1
    22    13    22    1
    23    20    21    1
    24    20    25    1
    25    20    26    1
    26    20    27    1
    27    21    22    1
    28    21    28    1
    29    21    29    1
    30    22    23    1
    31    22    30    1
    32    23    24    1
    33    23    31    1
    34    23    32    1
    35    24    25    1
    36    24    33    1
    37    24    34    1
    38    35    39    1
    39    36    37   ar
    40    36    41   ar
    41    36    42    1
    42    37    38   ar
    43    37    43    1
    44    38    39   ar
    45    38    44    1
    46    39    40   ar
    47    40    41   ar
    48    40    45    1
    49    41    46    1
