lig_p38a_3fly
                    3D
 Structure written by MMmdl.
 41 43  0  0  1  0            999 V2000
   34.8500   39.2100   21.6200 C   0  0  0  0  0  0
   34.3100   37.0400   22.5100 C   0  0  0  0  0  0
   34.4800   39.7900   22.7800 N   0  0  0  0  0  0
   34.8000   37.8100   21.4400 C   0  0  0  0  0  0
   35.2500   37.1300   20.2300 C   0  0  0  0  0  0
   35.1700   35.7800   20.1300 C   0  0  0  0  0  0
   34.5500   34.9800   21.1800 C   0  0  0  0  0  0
   34.0400   38.9800   23.7400 C   0  0  0  0  0  0
   34.3300   33.7800   21.0200 O   0  0  0  0  0  0
   34.2100   35.6200   22.3400 N   0  0  0  0  0  0
   33.7100   34.8400   23.4900 C   0  0  0  0  0  0
   33.9300   37.6500   23.6600 N   0  0  0  0  0  0
   33.6700   39.5700   24.9300 N   0  0  0  0  0  0
   35.2200   39.8500   20.8300 H   0  0  0  0  0  0
   35.7000   37.7400   19.4700 H   0  0  0  0  0  0
   34.3500   34.0100   23.7900 H   0  0  0  0  0  0
   33.6200   35.4700   24.3700 H   0  0  0  0  0  0
   32.7300   34.4300   23.2600 H   0  0  0  0  0  0
   33.8100   40.5600   24.9800 H   0  0  0  0  0  0
   33.0900   38.7200   26.0500 C   0  0  0  0  0  0
   33.9000   38.9500   27.3400 C   0  0  0  0  0  0
   31.6200   39.1100   26.2800 C   0  0  0  0  0  0
   33.1500   37.6600   25.7700 H   0  0  0  0  0  0
   33.4800   38.3400   28.1400 H   0  0  0  0  0  0
   34.9400   38.6700   27.1700 H   0  0  0  0  0  0
   33.8400   40.0000   27.6100 H   0  0  0  0  0  0
   31.2100   38.5000   27.0900 H   0  0  0  0  0  0
   31.5700   40.1600   26.5600 H   0  0  0  0  0  0
   31.0500   38.9400   25.3700 H   0  0  0  0  0  0
   35.6600   35.1500   19.0200 O   0  0  0  0  0  0
   37.0900   38.0000   16.3200 C   0  0  0  0  0  0
   37.9500   37.4400   17.2800 C   0  0  0  0  0  0
   37.4700   36.4800   18.1900 C   0  0  0  0  0  0
   36.1200   36.0800   18.1400 C   0  0  0  0  0  0
   35.2600   36.6400   17.1800 C   0  0  0  0  0  0
   35.7400   37.6000   16.2700 C   0  0  0  0  0  0
   37.5500   38.9100   15.4600 F   0  0  0  0  0  0
   39.0100   37.7600   17.3200 H   0  0  0  0  0  0
   38.2900   35.9500   19.1000 F   0  0  0  0  0  0
   34.2000   36.3300   17.1400 H   0  0  0  0  0  0
   35.0600   38.0300   15.5200 H   0  0  0  0  0  0
  1  3  1  0  0  0
  1  4  2  0  0  0
  1 14  1  0  0  0
  2  4  1  0  0  0
  2 10  1  0  0  0
  2 12  2  0  0  0
  3  8  2  0  0  0
  4  5  1  0  0  0
  5  6  2  0  0  0
  5 15  1  0  0  0
  6  7  1  0  0  0
  6 30  1  0  0  0
  7  9  2  0  0  0
  7 10  1  0  0  0
  8 12  1  0  0  0
  8 13  1  0  0  0
 10 11  1  0  0  0
 11 16  1  0  0  0
 11 17  1  0  0  0
 11 18  1  0  0  0
 13 19  1  0  0  0
 13 20  1  0  0  0
 20 21  1  0  0  0
 20 22  1  0  0  0
 20 23  1  0  0  0
 21 24  1  0  0  0
 21 25  1  0  0  0
 21 26  1  0  0  0
 22 27  1  0  0  0
 22 28  1  0  0  0
 22 29  1  0  0  0
 30 34  1  0  0  0
 31 32  1  0  0  0
 31 36  2  0  0  0
 31 37  1  0  0  0
 32 33  2  0  0  0
 32 38  1  0  0  0
 33 34  1  0  0  0
 33 39  1  0  0  0
 34 35  2  0  0  0
 35 36  1  0  0  0
 35 40  1  0  0  0
 36 41  1  0  0  0
M  END
> <s_m_entry_id>
30

> <s_m_entry_name>
lig_p38a_3fly.1

> <s_pdb_PDB_TITLE>
MX MODEL

> <i_pdb_PDB_Model>
1

> <r_pdb_PDB_CRYST1_a>
159.14

> <r_pdb_PDB_CRYST1_b>
135.78

> <r_pdb_PDB_CRYST1_c>
253.62

> <r_pdb_PDB_CRYST1_alpha>
90

> <r_pdb_PDB_CRYST1_beta>
90

> <r_pdb_PDB_CRYST1_gamma>
90

> <s_pdb_PDB_CRYST1_Space_Group>
P 1

> <i_pdb_PDB_CRYST1_z>
1

> <s_pdb_PDB_format_version>
3.0

> <s_m_Source_Path>
/users/home/dhahn3/projects/PLBenchmarks/PLBenchmarks/data/2019-12-09_p38/03_docked

> <s_m_Source_File>
lig_p38a_3fly.pdb

> <i_m_Source_File_Index>
1

$$$$
