@<TRIPOS>MOLECULE
mol_gmx
 47 50 0 0 0
SMALL
GASTEIGER
****
Structure written by MMmdl.
@<TRIPOS>ATOM
      1 C          34.5500   34.9800   21.1800 C.ar    1  LIG1        0.2962
      2 C          34.0400   38.9800   23.7400 C.ar    1  LIG1        0.2173
      3 C          34.8000   37.8100   21.4400 C.ar    1  LIG1        0.0395
      4 C          35.2500   37.1300   20.2300 C.ar    1  LIG1       -0.0018
      5 C          34.3100   37.0400   22.5100 C.ar    1  LIG1        0.1495
      6 C          34.8500   39.2100   21.6200 C.ar    1  LIG1        0.0419
      7 C          35.1700   35.7800   20.1300 C.ar    1  LIG1        0.1935
      8 N          34.4800   39.7900   22.7800 N.ar    1  LIG1       -0.2222
      9 O          34.3300   33.7800   21.0200 O.2     1  LIG1       -0.2636
     10 N          34.2100   35.6200   22.3400 N.ar    1  LIG1       -0.2760
     11 N          33.9300   37.6500   23.6600 N.ar    1  LIG1       -0.1964
     12 N          33.6700   39.5700   24.9300 N.pl3   1  LIG1       -0.3104
     13 H          35.7000   37.7400   19.4700 H       1  LIG1        0.0664
     14 H          35.2200   39.8600   20.8400 H       1  LIG1        0.0838
     15 H          33.7900   40.5700   24.9700 H       1  LIG1        0.1492
     16 C          33.6800   34.8400   23.4400 C.3     1  LIG1        0.1148
     17 H          34.1500   35.1800   24.4000 H       1  LIG1        0.0651
     18 C          32.1500   35.0500   23.5300 C.1     1  LIG1        0.0844
     19 C          31.1200   38.3100   27.4600 C.3     1  LIG1        0.0493
     20 C          31.6800   39.1200   26.2900 C.3     1  LIG1       -0.0109
     21 C          33.1500   38.7500   26.0100 C.3     1  LIG1        0.0275
     22 C          34.0100   38.9400   27.2700 C.3     1  LIG1       -0.0109
     23 C          33.4500   38.1200   28.4400 C.3     1  LIG1        0.0493
     24 O          31.9900   38.4900   28.7200 O.3     1  LIG1       -0.3796
     25 H          31.1000   37.2300   27.1800 H       1  LIG1        0.0560
     26 H          30.0700   38.6200   27.6700 H       1  LIG1        0.0560
     27 H          31.6200   40.2100   26.5200 H       1  LIG1        0.0305
     28 H          31.0700   38.9500   25.3700 H       1  LIG1        0.0305
     29 H          33.2100   37.6900   25.6700 H       1  LIG1        0.0500
     30 H          35.0700   38.6300   27.0600 H       1  LIG1        0.0305
     31 H          34.0400   40.0200   27.5400 H       1  LIG1        0.0305
     32 H          33.5200   37.0300   28.2000 H       1  LIG1        0.0560
     33 H          34.0700   38.2900   29.3600 H       1  LIG1        0.0560
     34 O          35.6600   35.1800   19.0100 O.3     1  LIG1       -0.4477
     35 C          37.2600   38.0600   16.4500 C.ar    1  LIG1        0.1264
     36 C          38.0700   37.4700   17.4400 C.ar    1  LIG1        0.0125
     37 C          37.5300   36.5000   18.3000 C.ar    1  LIG1        0.1681
     38 C          36.1900   36.1200   18.1700 C.ar    1  LIG1        0.1639
     39 C          35.3800   36.7000   17.1800 C.ar    1  LIG1       -0.0137
     40 C          35.9200   37.6700   16.3200 C.ar    1  LIG1       -0.0228
     41 F          37.7700   38.9800   15.6300 F       1  LIG1       -0.2054
     42 H          39.1200   37.7800   17.5500 H       1  LIG1        0.0676
     43 F          38.2900   35.9500   19.2500 F       1  LIG1       -0.2015
     44 H          34.3200   36.4000   17.0800 H       1  LIG1        0.0656
     45 H          35.2800   38.1300   15.5400 H       1  LIG1        0.0647
     46 H          33.8900   33.7900   23.2800 H       1  LIG1        0.0651
     47 N          30.7000   35.2500   23.6100 N.1     1  LIG1       -0.1947
@<TRIPOS>BOND
     1     1     7   ar
     2     1     9    2
     3     1    10   ar
     4     2     8   ar
     5     2    11   ar
     6     2    12    1
     7     3     4   ar
     8     3     5   ar
     9     3     6   ar
    10     4     7   ar
    11     4    13    1
    12     5    10   ar
    13     5    11   ar
    14     6     8   ar
    15     6    14    1
    16     7    34    1
    17    10    16    1
    18    12    15    1
    19    12    21    1
    20    16    17    1
    21    16    18    1
    22    16    46    1
    23    18    47    3
    24    19    20    1
    25    19    24    1
    26    19    25    1
    27    19    26    1
    28    20    21    1
    29    20    27    1
    30    20    28    1
    31    21    22    1
    32    21    29    1
    33    22    23    1
    34    22    30    1
    35    22    31    1
    36    23    24    1
    37    23    32    1
    38    23    33    1
    39    34    38    1
    40    35    36   ar
    41    35    40   ar
    42    35    41    1
    43    36    37   ar
    44    36    42    1
    45    37    38   ar
    46    37    43    1
    47    38    39   ar
    48    39    40   ar
    49    39    44    1
    50    40    45    1
