@<TRIPOS>MOLECULE
lig_p38a_2l
 49 52 0 0 0
SMALL
GASTEIGER
****
Structure written by MMmdl.
@<TRIPOS>ATOM
      1 C          34.5500   34.9800   21.1800 C.ar    1  LIG1        0.2953
      2 C          34.0400   38.9800   23.7400 C.ar    1  LIG1        0.2173
      3 C          34.8000   37.8100   21.4400 C.ar    1  LIG1        0.0394
      4 C          35.2500   37.1300   20.2300 C.ar    1  LIG1       -0.0018
      5 C          34.3100   37.0400   22.5100 C.ar    1  LIG1        0.1486
      6 C          34.8500   39.2100   21.6200 C.ar    1  LIG1        0.0419
      7 C          35.1700   35.7800   20.1300 C.ar    1  LIG1        0.1935
      8 N          34.4800   39.7900   22.7800 N.ar    1  LIG1       -0.2222
      9 O          34.3300   33.7800   21.0200 O.2     1  LIG1       -0.2636
     10 N          34.2100   35.6200   22.3400 N.ar    1  LIG1       -0.2899
     11 N          33.9300   37.6500   23.6600 N.ar    1  LIG1       -0.1964
     12 N          33.6700   39.5700   24.9300 N.pl3   1  LIG1       -0.3104
     13 H          35.7000   37.7400   19.4700 H       1  LIG1        0.0664
     14 H          35.2200   39.8600   20.8400 H       1  LIG1        0.0838
     15 H          33.7900   40.5700   24.9700 H       1  LIG1        0.1492
     16 C          33.6800   34.8400   23.4400 C.3     1  LIG1        0.0253
     17 H          33.4600   35.5200   24.3100 H       1  LIG1        0.0490
     18 H          32.7300   34.3400   23.1200 H       1  LIG1        0.0490
     19 C          34.7000   33.7900   23.8700 C.3     1  LIG1       -0.0469
     20 H          34.9100   33.1100   23.0100 H       1  LIG1        0.0247
     21 H          35.6400   34.3000   24.1900 H       1  LIG1        0.0247
     22 H          34.2800   33.1900   24.7200 H       1  LIG1        0.0247
     23 C          31.1300   38.3300   27.4800 C.3     1  LIG1        0.0493
     24 C          31.7000   39.1500   26.3100 C.3     1  LIG1       -0.0109
     25 C          33.1500   38.7500   26.0100 C.3     1  LIG1        0.0275
     26 C          34.0300   38.9100   27.2600 C.3     1  LIG1       -0.0109
     27 C          33.4700   38.1000   28.4300 C.3     1  LIG1        0.0493
     28 O          32.0100   38.4900   28.7300 O.3     1  LIG1       -0.3796
     29 H          31.0900   37.2500   27.2000 H       1  LIG1        0.0560
     30 H          30.0900   38.6500   27.7100 H       1  LIG1        0.0560
     31 H          31.6500   40.2300   26.5500 H       1  LIG1        0.0305
     32 H          31.0600   38.9900   25.4000 H       1  LIG1        0.0305
     33 H          33.1900   37.6900   25.6600 H       1  LIG1        0.0500
     34 H          35.0800   38.5900   27.0300 H       1  LIG1        0.0305
     35 H          34.0800   39.9900   27.5400 H       1  LIG1        0.0305
     36 H          33.5200   37.0100   28.1900 H       1  LIG1        0.0560
     37 H          34.1000   38.2500   29.3400 H       1  LIG1        0.0560
     38 O          35.6600   35.1800   19.0100 O.3     1  LIG1       -0.4477
     39 C          37.2600   38.0600   16.4500 C.ar    1  LIG1        0.1264
     40 C          38.0700   37.4600   17.4300 C.ar    1  LIG1        0.0125
     41 C          37.5300   36.4900   18.2900 C.ar    1  LIG1        0.1681
     42 C          36.1900   36.1200   18.1700 C.ar    1  LIG1        0.1639
     43 C          35.3700   36.7200   17.2000 C.ar    1  LIG1       -0.0137
     44 C          35.9100   37.6900   16.3400 C.ar    1  LIG1       -0.0228
     45 F          37.7700   38.9800   15.6300 F       1  LIG1       -0.2054
     46 H          39.1300   37.7500   17.5200 H       1  LIG1        0.0676
     47 F          38.3100   35.9200   19.2100 F       1  LIG1       -0.2015
     48 H          34.3100   36.4300   17.1100 H       1  LIG1        0.0656
     49 H          35.2700   38.1600   15.5700 H       1  LIG1        0.0647
@<TRIPOS>BOND
     1     1     7   ar
     2     1     9    2
     3     1    10   ar
     4     2     8   ar
     5     2    11   ar
     6     2    12    1
     7     3     4   ar
     8     3     5   ar
     9     3     6   ar
    10     4     7   ar
    11     4    13    1
    12     5    10   ar
    13     5    11   ar
    14     6     8   ar
    15     6    14    1
    16     7    38    1
    17    10    16    1
    18    12    15    1
    19    12    25    1
    20    16    17    1
    21    16    18    1
    22    16    19    1
    23    19    20    1
    24    19    21    1
    25    19    22    1
    26    23    24    1
    27    23    28    1
    28    23    29    1
    29    23    30    1
    30    24    25    1
    31    24    31    1
    32    24    32    1
    33    25    26    1
    34    25    33    1
    35    26    27    1
    36    26    34    1
    37    26    35    1
    38    27    28    1
    39    27    36    1
    40    27    37    1
    41    38    42    1
    42    39    40   ar
    43    39    44   ar
    44    39    45    1
    45    40    41   ar
    46    40    46    1
    47    41    42   ar
    48    41    47    1
    49    42    43   ar
    50    43    44   ar
    51    43    48    1
    52    44    49    1
