@<TRIPOS>MOLECULE
lig_p38a_2ff
 49 52 0 0 0
SMALL
GASTEIGER
****
Structure written by MMmdl.
@<TRIPOS>ATOM
      1 C          34.5500   34.9800   21.1800 C.ar    1  LIG1        0.2951
      2 C          34.0400   38.9800   23.7400 C.ar    1  LIG1        0.2173
      3 C          34.8000   37.8100   21.4400 C.ar    1  LIG1        0.0394
      4 C          35.2500   37.1300   20.2300 C.ar    1  LIG1       -0.0018
      5 C          34.3100   37.0400   22.5100 C.ar    1  LIG1        0.1484
      6 C          34.8500   39.2100   21.6200 C.ar    1  LIG1        0.0419
      7 C          35.1700   35.7800   20.1300 C.ar    1  LIG1        0.1934
      8 C          33.6700   34.8300   23.4600 C.3     1  LIG1        0.0168
      9 N          34.4800   39.7900   22.7800 N.ar    1  LIG1       -0.2222
     10 O          34.3300   33.7800   21.0200 O.2     1  LIG1       -0.2636
     11 N          34.2100   35.6200   22.3400 N.ar    1  LIG1       -0.2928
     12 N          33.9300   37.6500   23.6600 N.ar    1  LIG1       -0.1964
     13 N          33.6700   39.5700   24.9300 N.pl3   1  LIG1       -0.3106
     14 H          35.7000   37.7400   19.4700 H       1  LIG1        0.0664
     15 H          35.2200   39.8600   20.8400 H       1  LIG1        0.0838
     16 H          33.4000   35.4700   24.3000 H       1  LIG1        0.0457
     17 H          32.7700   34.3000   23.1400 H       1  LIG1        0.0457
     18 H          34.3700   34.1000   23.8700 H       1  LIG1        0.0457
     19 H          33.7900   40.5700   24.9700 H       1  LIG1        0.1492
     20 C          31.1500   38.3500   27.5000 C.3     1  LIG1       -0.0252
     21 C          31.7100   39.1700   26.3300 C.3     1  LIG1       -0.0322
     22 C          33.1500   38.7500   26.0100 C.3     1  LIG1        0.0235
     23 C          34.0500   38.8900   27.2500 C.3     1  LIG1       -0.0322
     24 C          33.4900   38.0700   28.4200 C.3     1  LIG1       -0.0252
     25 C          32.0400   38.4900   28.7400 C.3     1  LIG1        0.0554
     26 H          31.0800   37.2700   27.2100 H       1  LIG1        0.0291
     27 H          30.1100   38.6900   27.7400 H       1  LIG1        0.0291
     28 H          31.6800   40.2500   26.5800 H       1  LIG1        0.0284
     29 H          31.0600   39.0300   25.4200 H       1  LIG1        0.0284
     30 H          33.1700   37.6900   25.6500 H       1  LIG1        0.0498
     31 H          35.0900   38.5500   27.0100 H       1  LIG1        0.0284
     32 H          34.1100   39.9700   27.5400 H       1  LIG1        0.0284
     33 H          33.5200   36.9900   28.1700 H       1  LIG1        0.0291
     34 H          34.1300   38.2100   29.3300 H       1  LIG1        0.0291
     35 H          32.0300   39.5500   29.0900 H       1  LIG1        0.0593
     36 O          31.5400   37.6900   29.7900 O.3     1  LIG1       -0.3918
     37 H          32.1000   37.7800   30.5600 H       1  LIG1        0.2098
     38 O          35.6600   35.1800   19.0100 O.3     1  LIG1       -0.4477
     39 C          37.2600   38.0600   16.4500 C.ar    1  LIG1        0.1264
     40 C          38.0700   37.4600   17.4300 C.ar    1  LIG1        0.0125
     41 C          37.5300   36.4900   18.2900 C.ar    1  LIG1        0.1681
     42 C          36.1900   36.1200   18.1700 C.ar    1  LIG1        0.1639
     43 C          35.3700   36.7200   17.2000 C.ar    1  LIG1       -0.0137
     44 C          35.9100   37.6900   16.3400 C.ar    1  LIG1       -0.0228
     45 F          37.7700   38.9800   15.6300 F       1  LIG1       -0.2054
     46 H          39.1300   37.7500   17.5200 H       1  LIG1        0.0676
     47 F          38.3100   35.9200   19.2100 F       1  LIG1       -0.2015
     48 H          34.3100   36.4300   17.1100 H       1  LIG1        0.0656
     49 H          35.2700   38.1600   15.5700 H       1  LIG1        0.0647
@<TRIPOS>BOND
     1     1     7   ar
     2     1    10    2
     3     1    11   ar
     4     2     9   ar
     5     2    12   ar
     6     2    13    1
     7     3     4   ar
     8     3     5   ar
     9     3     6   ar
    10     4     7   ar
    11     4    14    1
    12     5    11   ar
    13     5    12   ar
    14     6     9   ar
    15     6    15    1
    16     7    38    1
    17     8    11    1
    18     8    16    1
    19     8    17    1
    20     8    18    1
    21    13    19    1
    22    13    22    1
    23    20    21    1
    24    20    25    1
    25    20    26    1
    26    20    27    1
    27    21    22    1
    28    21    28    1
    29    21    29    1
    30    22    23    1
    31    22    30    1
    32    23    24    1
    33    23    31    1
    34    23    32    1
    35    24    25    1
    36    24    33    1
    37    24    34    1
    38    25    35    1
    39    25    36    1
    40    36    37    1
    41    38    42    1
    42    39    40   ar
    43    39    44   ar
    44    39    45    1
    45    40    41   ar
    46    40    46    1
    47    41    42   ar
    48    41    47    1
    49    42    43   ar
    50    43    44   ar
    51    43    48    1
    52    44    49    1
