@<TRIPOS>MOLECULE
lig_p38a_3fmh
 46 49 0 0 0
SMALL
GASTEIGER
****
Structure written by MMmdl.
@<TRIPOS>ATOM
      1 C          35.1700   35.7800   20.1300 C.ar    1  LIG1        0.1934
      2 C          34.5500   34.9800   21.1800 C.ar    1  LIG1        0.2951
      3 O          34.3300   33.7800   21.0200 O.2     1  LIG1       -0.2636
      4 N          34.2100   35.6200   22.3400 N.ar    1  LIG1       -0.2928
      5 C          33.7000   34.8300   23.4800 C.3     1  LIG1        0.0168
      6 C          34.3100   37.0400   22.5100 C.ar    1  LIG1        0.1484
      7 N          33.9300   37.6500   23.6600 N.ar    1  LIG1       -0.1964
      8 C          35.2500   37.1300   20.2300 C.ar    1  LIG1       -0.0018
      9 C          34.8000   37.8100   21.4400 C.ar    1  LIG1        0.0394
     10 C          34.8500   39.2100   21.6200 C.ar    1  LIG1        0.0419
     11 N          34.4800   39.7900   22.7800 N.ar    1  LIG1       -0.2222
     12 C          34.0400   38.9800   23.7400 C.ar    1  LIG1        0.2173
     13 N          33.6700   39.5700   24.9300 N.pl3   1  LIG1       -0.3090
     14 C          33.0500   38.9400   26.0900 C.3     1  LIG1        0.0417
     15 C          31.6200   39.4400   26.2500 C.3     1  LIG1       -0.0448
     16 C          33.9200   39.1100   27.3600 C.3     1  LIG1        0.0809
     17 N          34.2000   40.5000   27.7100 N.ar    1  LIG1       -0.1616
     18 N          35.3700   41.1000   27.4000 N.ar    1  LIG1       -0.1390
     19 C          35.1500   42.2900   27.9300 C.ar    1  LIG1        0.1617
     20 N          33.9300   42.4200   28.5200 N.ar    1  LIG1       -0.1164
     21 N          33.3400   41.2800   28.3900 N.ar    1  LIG1       -0.0463
     22 H          33.3900   35.4800   24.3000 H       1  LIG1        0.0457
     23 H          32.8300   34.2500   23.1700 H       1  LIG1        0.0457
     24 H          34.4300   34.1400   23.9100 H       1  LIG1        0.0457
     25 H          35.6900   37.7400   19.4600 H       1  LIG1        0.0664
     26 H          35.2200   39.8600   20.8300 H       1  LIG1        0.0838
     27 H          33.8400   40.5600   25.0000 H       1  LIG1        0.1492
     28 H          32.9800   37.8700   25.9000 H       1  LIG1        0.0514
     29 H          31.1300   38.9700   27.1100 H       1  LIG1        0.0248
     30 H          31.5700   40.5200   26.4000 H       1  LIG1        0.0248
     31 H          31.0300   39.2000   25.3700 H       1  LIG1        0.0248
     32 H          33.4300   38.6400   28.2100 H       1  LIG1        0.0545
     33 H          34.8700   38.5900   27.2300 H       1  LIG1        0.0545
     34 H          35.8800   43.0900   27.8800 H       1  LIG1        0.1085
     35 O          35.6600   35.1800   19.0100 O.3     1  LIG1       -0.4477
     36 C          37.2600   38.0600   16.4500 C.ar    1  LIG1        0.1264
     37 C          38.0800   37.4300   17.4000 C.ar    1  LIG1        0.0125
     38 C          37.5400   36.4600   18.2600 C.ar    1  LIG1        0.1681
     39 C          36.1900   36.1200   18.1700 C.ar    1  LIG1        0.1639
     40 C          35.3600   36.7500   17.2200 C.ar    1  LIG1       -0.0137
     41 C          35.9000   37.7200   16.3600 C.ar    1  LIG1       -0.0228
     42 F          37.7700   38.9800   15.6300 F       1  LIG1       -0.2054
     43 H          39.1500   37.7000   17.4700 H       1  LIG1        0.0676
     44 F          38.3200   35.8600   19.1700 F       1  LIG1       -0.2015
     45 H          34.3000   36.4800   17.1500 H       1  LIG1        0.0656
     46 H          35.2600   38.2100   15.6200 H       1  LIG1        0.0647
@<TRIPOS>BOND
     1     1     2   ar
     2     1     8   ar
     3     1    35    1
     4     2     3    2
     5     2     4   ar
     6     4     5    1
     7     4     6   ar
     8     5    22    1
     9     5    23    1
    10     5    24    1
    11     6     7   ar
    12     6     9   ar
    13     7    12   ar
    14     8     9   ar
    15     8    25    1
    16     9    10   ar
    17    10    11   ar
    18    10    26    1
    19    11    12   ar
    20    12    13    1
    21    13    14    1
    22    13    27    1
    23    14    15    1
    24    14    16    1
    25    14    28    1
    26    15    29    1
    27    15    30    1
    28    15    31    1
    29    16    17    1
    30    16    32    1
    31    16    33    1
    32    17    18   ar
    33    17    21   ar
    34    18    19   ar
    35    19    20   ar
    36    19    34    1
    37    20    21   ar
    38    35    39    1
    39    36    37   ar
    40    36    41   ar
    41    36    42    1
    42    37    38   ar
    43    37    43    1
    44    38    39   ar
    45    38    44    1
    46    39    40   ar
    47    40    41   ar
    48    40    45    1
    49    41    46    1
