lig_p38a_3flq
                    3D
 Structure written by MMmdl.
 47 49  0  0  1  0            999 V2000
   34.0400   38.9800   23.7400 C   0  0  0  0  0  0
   34.8000   37.8100   21.4400 C   0  0  0  0  0  0
   35.2500   37.1300   20.2300 C   0  0  0  0  0  0
   34.3100   37.0400   22.5100 C   0  0  0  0  0  0
   35.1700   35.7800   20.1300 C   0  0  0  0  0  0
   34.2100   35.6200   22.3400 N   0  0  0  0  0  0
   34.5500   34.9800   21.1800 C   0  0  0  0  0  0
   34.3300   33.7800   21.0200 O   0  0  0  0  0  0
   34.8500   39.2100   21.6200 C   0  0  0  0  0  0
   34.4800   39.7900   22.7800 N   0  0  0  0  0  0
   33.9300   37.6500   23.6600 N   0  0  0  0  0  0
   33.6600   34.8300   23.4500 C   0  0  0  0  0  0
   33.6700   39.5700   24.9300 N   0  0  0  0  0  0
   35.6900   37.7400   19.4700 H   0  0  0  0  0  0
   35.2100   39.8600   20.8300 H   0  0  0  0  0  0
   34.2800   33.9700   23.7200 H   0  0  0  0  0  0
   33.5900   35.4200   24.3700 H   0  0  0  0  0  0
   32.6600   34.4700   23.2000 H   0  0  0  0  0  0
   33.8300   40.5600   24.9800 H   0  0  0  0  0  0
   33.0700   38.7200   26.0400 C   0  0  1  0  0  0
   33.9200   38.8700   27.3100 C   0  0  0  0  0  0
   31.6300   39.2000   26.3300 C   0  0  0  0  0  0
   33.0500   37.6800   25.7300 H   0  0  0  0  0  0
   33.4900   38.2600   28.1100 H   0  0  0  0  0  0
   34.9400   38.5300   27.1100 H   0  0  0  0  0  0
   33.9400   39.9100   27.6200 H   0  0  0  0  0  0
   31.2000   38.5900   27.1200 H   0  0  0  0  0  0
   31.6500   40.2400   26.6300 H   0  0  0  0  0  0
   30.6400   39.0300   24.8500 S   0  0  0  0  0  0
   31.3400   39.7300   23.7400 O   0  0  0  0  0  0
   30.5600   37.2800   24.4400 C   0  0  0  0  0  0
   29.2700   39.4900   25.1500 O   0  0  0  0  0  0
   30.0500   36.7500   25.2400 H   0  0  0  0  0  0
   30.0100   37.1600   23.5100 H   0  0  0  0  0  0
   31.5700   36.8900   24.3200 H   0  0  0  0  0  0
   35.6600   35.1500   19.0200 O   0  0  0  0  0  0
   37.3100   37.9800   16.4300 C   0  0  0  0  0  0
   38.0700   37.4700   17.5000 C   0  0  0  0  0  0
   37.5200   36.5200   18.3700 C   0  0  0  0  0  0
   36.2000   36.0800   18.1700 C   0  0  0  0  0  0
   35.4300   36.5900   17.1100 C   0  0  0  0  0  0
   35.9900   37.5400   16.2400 C   0  0  0  0  0  0
   37.8400   38.8800   15.6100 F   0  0  0  0  0  0
   39.1100   37.8200   17.6500 H   0  0  0  0  0  0
   38.2400   36.0300   19.3800 F   0  0  0  0  0  0
   34.4000   36.2400   16.9600 H   0  0  0  0  0  0
   35.3900   37.9400   15.4000 H   0  0  0  0  0  0
  1 10  1  0  0  0
  1 11  2  0  0  0
  1 13  1  0  0  0
  2  3  1  0  0  0
  2  4  2  0  0  0
  2  9  1  0  0  0
  3  5  2  0  0  0
  3 14  1  0  0  0
  4  6  1  0  0  0
  4 11  1  0  0  0
  5  7  1  0  0  0
  5 36  1  0  0  0
  6  7  1  0  0  0
  6 12  1  0  0  0
  7  8  2  0  0  0
  9 10  2  0  0  0
  9 15  1  0  0  0
 12 16  1  0  0  0
 12 17  1  0  0  0
 12 18  1  0  0  0
 13 19  1  0  0  0
 13 20  1  0  0  0
 20 21  1  0  0  0
 20 22  1  0  0  0
 20 23  1  0  0  0
 21 24  1  0  0  0
 21 25  1  0  0  0
 21 26  1  0  0  0
 22 27  1  0  0  0
 22 28  1  0  0  0
 22 29  1  0  0  0
 29 30  2  0  0  0
 29 31  1  0  0  0
 29 32  2  0  0  0
 31 33  1  0  0  0
 31 34  1  0  0  0
 31 35  1  0  0  0
 36 40  1  0  0  0
 37 38  1  0  0  0
 37 42  2  0  0  0
 37 43  1  0  0  0
 38 39  2  0  0  0
 38 44  1  0  0  0
 39 40  1  0  0  0
 39 45  1  0  0  0
 40 41  2  0  0  0
 41 42  1  0  0  0
 41 46  1  0  0  0
 42 47  1  0  0  0
M  END
> <s_m_entry_id>
28

> <s_m_entry_name>
lig_p38a_3flq.1

> <s_pdb_PDB_TITLE>
MX MODEL

> <i_pdb_PDB_Model>
1

> <r_pdb_PDB_CRYST1_a>
196.76

> <r_pdb_PDB_CRYST1_b>
135.72

> <r_pdb_PDB_CRYST1_c>
254.16

> <r_pdb_PDB_CRYST1_alpha>
90

> <r_pdb_PDB_CRYST1_beta>
90

> <r_pdb_PDB_CRYST1_gamma>
90

> <s_pdb_PDB_CRYST1_Space_Group>
P 1

> <i_pdb_PDB_CRYST1_z>
1

> <s_pdb_PDB_format_version>
3.0

> <s_m_Source_Path>
/users/home/dhahn3/projects/PLBenchmarks/PLBenchmarks/data/2019-12-09_p38/03_docked

> <s_m_Source_File>
lig_p38a_3flq.pdb

> <i_m_Source_File_Index>
1

$$$$
