lig_p38a_2o
                    3D
 Structure written by MMmdl.
 55 58  0  0  1  0            999 V2000
   34.5500   34.9800   21.1800 C   0  0  0  0  0  0
   34.0400   38.9800   23.7400 C   0  0  0  0  0  0
   34.8000   37.8100   21.4400 C   0  0  0  0  0  0
   35.2500   37.1300   20.2300 C   0  0  0  0  0  0
   34.3100   37.0400   22.5100 C   0  0  0  0  0  0
   34.8500   39.2100   21.6200 C   0  0  0  0  0  0
   35.1700   35.7800   20.1300 C   0  0  0  0  0  0
   34.4800   39.7900   22.7800 N   0  0  0  0  0  0
   34.3300   33.7800   21.0200 O   0  0  0  0  0  0
   34.2100   35.6200   22.3400 N   0  0  0  0  0  0
   33.9300   37.6500   23.6600 N   0  0  0  0  0  0
   33.6700   39.5700   24.9300 N   0  0  0  0  0  0
   35.7000   37.7400   19.4700 H   0  0  0  0  0  0
   35.2200   39.8600   20.8400 H   0  0  0  0  0  0
   33.7900   40.5700   24.9700 H   0  0  0  0  0  0
   33.6800   34.8400   23.4400 C   0  0  0  0  0  0
   33.4600   35.5200   24.3100 H   0  0  0  0  0  0
   32.7300   34.3400   23.1200 H   0  0  0  0  0  0
   34.7000   33.7900   23.8700 C   0  0  0  0  0  0
   34.9100   33.1100   23.0100 H   0  0  0  0  0  0
   35.6400   34.3000   24.1900 H   0  0  0  0  0  0
   34.1500   32.9900   25.0100 S   0  0  0  0  0  0
   33.8700   33.9200   26.1300 O   0  0  0  0  0  0
   35.0900   31.8800   25.3000 O   0  0  0  0  0  0
   32.8400   32.4000   24.5600 C   0  0  0  0  0  0
   33.0300   31.6900   23.7200 H   0  0  0  0  0  0
   32.3800   31.8400   25.4200 H   0  0  0  0  0  0
   32.1500   33.2100   24.2300 H   0  0  0  0  0  0
   31.1500   38.3500   27.5000 C   0  0  0  0  0  0
   31.7100   39.1700   26.3300 C   0  0  0  0  0  0
   33.1500   38.7500   26.0100 C   0  0  0  0  0  0
   34.0500   38.8900   27.2500 C   0  0  0  0  0  0
   33.4900   38.0700   28.4200 C   0  0  0  0  0  0
   32.0400   38.4900   28.7400 O   0  0  0  0  0  0
   31.0800   37.2700   27.2100 H   0  0  0  0  0  0
   30.1100   38.6900   27.7400 H   0  0  0  0  0  0
   31.6800   40.2500   26.5800 H   0  0  0  0  0  0
   31.0600   39.0300   25.4200 H   0  0  0  0  0  0
   33.1700   37.6900   25.6500 H   0  0  0  0  0  0
   35.0900   38.5500   27.0100 H   0  0  0  0  0  0
   34.1100   39.9700   27.5400 H   0  0  0  0  0  0
   33.5200   36.9900   28.1700 H   0  0  0  0  0  0
   34.1300   38.2100   29.3300 H   0  0  0  0  0  0
   35.6600   35.1800   19.0100 O   0  0  0  0  0  0
   37.2600   38.0600   16.4500 C   0  0  0  0  0  0
   38.0600   37.4800   17.4500 C   0  0  0  0  0  0
   37.5200   36.5100   18.3100 C   0  0  0  0  0  0
   36.1900   36.1200   18.1700 C   0  0  0  0  0  0
   35.3800   36.6900   17.1700 C   0  0  0  0  0  0
   35.9200   37.6600   16.3100 C   0  0  0  0  0  0
   37.7700   38.9800   15.6300 F   0  0  0  0  0  0
   39.1200   37.8000   17.5600 H   0  0  0  0  0  0
   38.2900   35.9700   19.2600 F   0  0  0  0  0  0
   34.3300   36.3800   17.0600 H   0  0  0  0  0  0
   35.2900   38.1100   15.5300 H   0  0  0  0  0  0
  1  7  1  0  0  0
  1  9  2  0  0  0
  1 10  1  0  0  0
  2  8  1  0  0  0
  2 11  2  0  0  0
  2 12  1  0  0  0
  3  4  1  0  0  0
  3  5  2  0  0  0
  3  6  1  0  0  0
  4  7  2  0  0  0
  4 13  1  0  0  0
  5 10  1  0  0  0
  5 11  1  0  0  0
  6  8  2  0  0  0
  6 14  1  0  0  0
  7 44  1  0  0  0
 10 16  1  0  0  0
 12 15  1  0  0  0
 12 31  1  0  0  0
 16 17  1  0  0  0
 16 18  1  0  0  0
 16 19  1  0  0  0
 19 20  1  0  0  0
 19 21  1  0  0  0
 19 22  1  0  0  0
 22 23  2  0  0  0
 22 24  2  0  0  0
 22 25  1  0  0  0
 25 26  1  0  0  0
 25 27  1  0  0  0
 25 28  1  0  0  0
 29 30  1  0  0  0
 29 34  1  0  0  0
 29 35  1  0  0  0
 29 36  1  0  0  0
 30 31  1  0  0  0
 30 37  1  0  0  0
 30 38  1  0  0  0
 31 32  1  0  0  0
 31 39  1  0  0  0
 32 33  1  0  0  0
 32 40  1  0  0  0
 32 41  1  0  0  0
 33 34  1  0  0  0
 33 42  1  0  0  0
 33 43  1  0  0  0
 44 48  1  0  0  0
 45 46  1  0  0  0
 45 50  2  0  0  0
 45 51  1  0  0  0
 46 47  2  0  0  0
 46 52  1  0  0  0
 47 48  1  0  0  0
 47 53  1  0  0  0
 48 49  2  0  0  0
 49 50  1  0  0  0
 49 54  1  0  0  0
 50 55  1  0  0  0
M  END
> <s_m_entry_id>
16

> <s_m_entry_name>
lig_p38a_2o.1

> <s_pdb_PDB_TITLE>
MX MODEL

> <i_pdb_PDB_Model>
1

> <r_pdb_PDB_CRYST1_a>
180.16

> <r_pdb_PDB_CRYST1_b>
177.56

> <r_pdb_PDB_CRYST1_c>
276

> <r_pdb_PDB_CRYST1_alpha>
90

> <r_pdb_PDB_CRYST1_beta>
90

> <r_pdb_PDB_CRYST1_gamma>
90

> <s_pdb_PDB_CRYST1_Space_Group>
P 1

> <i_pdb_PDB_CRYST1_z>
1

> <s_pdb_PDB_format_version>
3.0

> <s_m_Source_Path>
/users/home/dhahn3/projects/PLBenchmarks/PLBenchmarks/data/2019-12-09_p38/03_docked

> <s_m_Source_File>
lig_p38a_2o.pdb

> <i_m_Source_File_Index>
1

$$$$
