lig_p38a_2y
                    3D
 Structure written by MMmdl.
 45 47  0  0  1  0            999 V2000
   34.5500   34.9800   21.1800 C   0  0  0  0  0  0
   34.0400   38.9800   23.7400 C   0  0  0  0  0  0
   34.8000   37.8100   21.4400 C   0  0  0  0  0  0
   35.2500   37.1300   20.2300 C   0  0  0  0  0  0
   34.3100   37.0400   22.5100 C   0  0  0  0  0  0
   34.8500   39.2100   21.6200 C   0  0  0  0  0  0
   35.1700   35.7800   20.1300 C   0  0  0  0  0  0
   33.6700   34.8300   23.4600 C   0  0  0  0  0  0
   34.4800   39.7900   22.7800 N   0  0  0  0  0  0
   34.3300   33.7800   21.0200 O   0  0  0  0  0  0
   34.2100   35.6200   22.3400 N   0  0  0  0  0  0
   33.9300   37.6500   23.6600 N   0  0  0  0  0  0
   33.6700   39.5700   24.9300 N   0  0  0  0  0  0
   35.7000   37.7400   19.4700 H   0  0  0  0  0  0
   35.2200   39.8600   20.8400 H   0  0  0  0  0  0
   33.3300   35.4800   24.2700 H   0  0  0  0  0  0
   32.8200   34.2400   23.1200 H   0  0  0  0  0  0
   34.3900   34.1500   23.9200 H   0  0  0  0  0  0
   33.7900   40.5700   24.9700 H   0  0  0  0  0  0
   33.1200   38.7100   26.0600 C   0  0  0  0  0  0
   32.0900   39.0000   26.2700 H   0  0  0  0  0  0
   33.1600   37.6600   25.7700 H   0  0  0  0  0  0
   33.9800   38.9300   27.3200 C   0  0  0  0  0  0
   33.4200   38.0600   28.4700 C   0  0  0  0  0  0
   35.3100   38.5600   27.0600 O   0  0  0  0  0  0
   33.9300   40.4100   27.7300 C   0  0  0  0  0  0
   34.0300   38.2200   29.3700 H   0  0  0  0  0  0
   32.3900   38.3500   28.6800 H   0  0  0  0  0  0
   33.4600   37.0100   28.1900 H   0  0  0  0  0  0
   34.5300   40.5700   28.6300 H   0  0  0  0  0  0
   34.3200   41.0300   26.9200 H   0  0  0  0  0  0
   32.8900   40.7000   27.9300 H   0  0  0  0  0  0
   35.8400   38.7000   27.8500 H   0  0  0  0  0  0
   35.6600   35.1800   19.0100 O   0  0  0  0  0  0
   37.2600   38.0600   16.4500 C   0  0  0  0  0  0
   38.0700   37.4600   17.4300 C   0  0  0  0  0  0
   37.5300   36.4900   18.2900 C   0  0  0  0  0  0
   36.1900   36.1200   18.1700 C   0  0  0  0  0  0
   35.3700   36.7200   17.2000 C   0  0  0  0  0  0
   35.9100   37.6900   16.3400 C   0  0  0  0  0  0
   37.7700   38.9800   15.6300 F   0  0  0  0  0  0
   39.1300   37.7500   17.5200 H   0  0  0  0  0  0
   38.3100   35.9200   19.2100 F   0  0  0  0  0  0
   34.3100   36.4300   17.1100 H   0  0  0  0  0  0
   35.2700   38.1600   15.5700 H   0  0  0  0  0  0
  1  7  1  0  0  0
  1 10  2  0  0  0
  1 11  1  0  0  0
  2  9  1  0  0  0
  2 12  2  0  0  0
  2 13  1  0  0  0
  3  4  1  0  0  0
  3  5  2  0  0  0
  3  6  1  0  0  0
  4  7  2  0  0  0
  4 14  1  0  0  0
  5 11  1  0  0  0
  5 12  1  0  0  0
  6  9  2  0  0  0
  6 15  1  0  0  0
  7 34  1  0  0  0
  8 11  1  0  0  0
  8 16  1  0  0  0
  8 17  1  0  0  0
  8 18  1  0  0  0
 13 19  1  0  0  0
 13 20  1  0  0  0
 20 21  1  0  0  0
 20 22  1  0  0  0
 20 23  1  0  0  0
 23 24  1  0  0  0
 23 25  1  0  0  0
 23 26  1  0  0  0
 24 27  1  0  0  0
 24 28  1  0  0  0
 24 29  1  0  0  0
 25 33  1  0  0  0
 26 30  1  0  0  0
 26 31  1  0  0  0
 26 32  1  0  0  0
 34 38  1  0  0  0
 35 36  1  0  0  0
 35 40  2  0  0  0
 35 41  1  0  0  0
 36 37  2  0  0  0
 36 42  1  0  0  0
 37 38  1  0  0  0
 37 43  1  0  0  0
 38 39  2  0  0  0
 39 40  1  0  0  0
 39 44  1  0  0  0
 40 45  1  0  0  0
M  END
> <s_m_entry_id>
25

> <s_m_entry_name>
lig_p38a_2y.1

> <s_pdb_PDB_TITLE>
MX MODEL

> <i_pdb_PDB_Model>
1

> <r_pdb_PDB_CRYST1_a>
140.82

> <r_pdb_PDB_CRYST1_b>
145

> <r_pdb_PDB_CRYST1_c>
275.94

> <r_pdb_PDB_CRYST1_alpha>
90

> <r_pdb_PDB_CRYST1_beta>
90

> <r_pdb_PDB_CRYST1_gamma>
90

> <s_pdb_PDB_CRYST1_Space_Group>
P 1

> <i_pdb_PDB_CRYST1_z>
1

> <s_pdb_PDB_format_version>
3.0

> <s_m_Source_Path>
/users/home/dhahn3/projects/PLBenchmarks/PLBenchmarks/data/2019-12-09_p38/03_docked

> <s_m_Source_File>
lig_p38a_2y.pdb

> <i_m_Source_File_Index>
1

$$$$
