@<TRIPOS>MOLECULE
lig_p38a_3fln
 46 49 0 0 0
SMALL
GASTEIGER
****
Structure written by MMmdl.
@<TRIPOS>ATOM
      1 C          34.5500   34.9800   21.1800 C.ar    1  LIG1        0.2951
      2 C          34.0400   38.9800   23.7400 C.ar    1  LIG1        0.2173
      3 C          34.8000   37.8100   21.4400 C.ar    1  LIG1        0.0394
      4 C          35.2500   37.1300   20.2300 C.ar    1  LIG1       -0.0018
      5 C          34.3100   37.0400   22.5100 C.ar    1  LIG1        0.1484
      6 C          34.8500   39.2100   21.6200 C.ar    1  LIG1        0.0419
      7 C          35.1700   35.7800   20.1300 C.ar    1  LIG1        0.1934
      8 C          33.6700   34.8300   23.4600 C.3     1  LIG1        0.0168
      9 N          34.4800   39.7900   22.7800 N.ar    1  LIG1       -0.2222
     10 O          34.3300   33.7800   21.0200 O.2     1  LIG1       -0.2636
     11 N          34.2100   35.6200   22.3400 N.ar    1  LIG1       -0.2928
     12 N          33.9300   37.6500   23.6600 N.ar    1  LIG1       -0.1964
     13 N          33.6700   39.5700   24.9300 N.pl3   1  LIG1       -0.3104
     14 H          35.7000   37.7400   19.4700 H       1  LIG1        0.0664
     15 H          35.2200   39.8600   20.8400 H       1  LIG1        0.0838
     16 H          33.4900   35.4600   24.3400 H       1  LIG1        0.0457
     17 H          32.7200   34.3800   23.1700 H       1  LIG1        0.0457
     18 H          34.3300   34.0300   23.8000 H       1  LIG1        0.0457
     19 H          33.7900   40.5700   24.9700 H       1  LIG1        0.1492
     20 C          31.1000   38.2600   27.4100 C.3     1  LIG1        0.0493
     21 C          31.6600   39.0700   26.2300 C.3     1  LIG1       -0.0109
     22 C          33.1500   38.7500   26.0100 C.3     1  LIG1        0.0275
     23 C          33.9700   38.9900   27.2900 C.3     1  LIG1       -0.0109
     24 C          33.4000   38.1800   28.4600 C.3     1  LIG1        0.0493
     25 O          31.9200   38.4900   28.6900 O.3     1  LIG1       -0.3796
     26 H          31.1200   37.1700   27.1500 H       1  LIG1        0.0560
     27 H          30.0300   38.5300   27.5800 H       1  LIG1        0.0560
     28 H          31.5500   40.1600   26.4500 H       1  LIG1        0.0305
     29 H          31.0800   38.8600   25.3100 H       1  LIG1        0.0305
     30 H          33.2600   37.6900   25.6900 H       1  LIG1        0.0500
     31 H          35.0400   38.7200   27.1100 H       1  LIG1        0.0305
     32 H          33.9400   40.0800   27.5400 H       1  LIG1        0.0305
     33 H          33.5200   37.0900   28.2500 H       1  LIG1        0.0560
     34 H          33.9900   38.3900   29.3900 H       1  LIG1        0.0560
     35 O          35.6600   35.1800   19.0100 O.3     1  LIG1       -0.4477
     36 C          37.2600   38.0600   16.4500 C.ar    1  LIG1        0.1264
     37 C          38.0600   37.4900   17.4600 C.ar    1  LIG1        0.0125
     38 C          37.5200   36.5200   18.3200 C.ar    1  LIG1        0.1681
     39 C          36.1900   36.1200   18.1700 C.ar    1  LIG1        0.1639
     40 C          35.3900   36.6800   17.1600 C.ar    1  LIG1       -0.0137
     41 C          35.9200   37.6500   16.3000 C.ar    1  LIG1       -0.0228
     42 F          37.7700   38.9800   15.6300 F       1  LIG1       -0.2054
     43 H          39.1100   37.8100   17.5800 H       1  LIG1        0.0676
     44 F          38.2800   35.9900   19.2800 F       1  LIG1       -0.2015
     45 H          34.3400   36.3600   17.0500 H       1  LIG1        0.0656
     46 H          35.3000   38.0900   15.5100 H       1  LIG1        0.0647
@<TRIPOS>BOND
     1     1     7   ar
     2     1    10    2
     3     1    11   ar
     4     2     9   ar
     5     2    12   ar
     6     2    13    1
     7     3     4   ar
     8     3     5   ar
     9     3     6   ar
    10     4     7   ar
    11     4    14    1
    12     5    11   ar
    13     5    12   ar
    14     6     9   ar
    15     6    15    1
    16     7    35    1
    17     8    11    1
    18     8    16    1
    19     8    17    1
    20     8    18    1
    21    13    19    1
    22    13    22    1
    23    20    21    1
    24    20    25    1
    25    20    26    1
    26    20    27    1
    27    21    22    1
    28    21    28    1
    29    21    29    1
    30    22    23    1
    31    22    30    1
    32    23    24    1
    33    23    31    1
    34    23    32    1
    35    24    25    1
    36    24    33    1
    37    24    34    1
    38    35    39    1
    39    36    37   ar
    40    36    41   ar
    41    36    42    1
    42    37    38   ar
    43    37    43    1
    44    38    39   ar
    45    38    44    1
    46    39    40   ar
    47    40    41   ar
    48    40    45    1
    49    41    46    1
