lig_p38a_3fln
                    3D
 Structure written by MMmdl.
 46 49  0  0  1  0            999 V2000
   34.5500   34.9800   21.1800 C   0  0  0  0  0  0
   34.0400   38.9800   23.7400 C   0  0  0  0  0  0
   34.8000   37.8100   21.4400 C   0  0  0  0  0  0
   35.2500   37.1300   20.2300 C   0  0  0  0  0  0
   34.3100   37.0400   22.5100 C   0  0  0  0  0  0
   34.8500   39.2100   21.6200 C   0  0  0  0  0  0
   35.1700   35.7800   20.1300 C   0  0  0  0  0  0
   33.6700   34.8300   23.4600 C   0  0  0  0  0  0
   34.4800   39.7900   22.7800 N   0  0  0  0  0  0
   34.3300   33.7800   21.0200 O   0  0  0  0  0  0
   34.2100   35.6200   22.3400 N   0  0  0  0  0  0
   33.9300   37.6500   23.6600 N   0  0  0  0  0  0
   33.6700   39.5700   24.9300 N   0  0  0  0  0  0
   35.7000   37.7400   19.4700 H   0  0  0  0  0  0
   35.2200   39.8600   20.8400 H   0  0  0  0  0  0
   33.4900   35.4600   24.3400 H   0  0  0  0  0  0
   32.7200   34.3800   23.1700 H   0  0  0  0  0  0
   34.3300   34.0300   23.8000 H   0  0  0  0  0  0
   33.7900   40.5700   24.9700 H   0  0  0  0  0  0
   31.1000   38.2600   27.4100 C   0  0  0  0  0  0
   31.6600   39.0700   26.2300 C   0  0  0  0  0  0
   33.1500   38.7500   26.0100 C   0  0  0  0  0  0
   33.9700   38.9900   27.2900 C   0  0  0  0  0  0
   33.4000   38.1800   28.4600 C   0  0  0  0  0  0
   31.9200   38.4900   28.6900 O   0  0  0  0  0  0
   31.1200   37.1700   27.1500 H   0  0  0  0  0  0
   30.0300   38.5300   27.5800 H   0  0  0  0  0  0
   31.5500   40.1600   26.4500 H   0  0  0  0  0  0
   31.0800   38.8600   25.3100 H   0  0  0  0  0  0
   33.2600   37.6900   25.6900 H   0  0  0  0  0  0
   35.0400   38.7200   27.1100 H   0  0  0  0  0  0
   33.9400   40.0800   27.5400 H   0  0  0  0  0  0
   33.5200   37.0900   28.2500 H   0  0  0  0  0  0
   33.9900   38.3900   29.3900 H   0  0  0  0  0  0
   35.6600   35.1800   19.0100 O   0  0  0  0  0  0
   37.2600   38.0600   16.4500 C   0  0  0  0  0  0
   38.0600   37.4900   17.4600 C   0  0  0  0  0  0
   37.5200   36.5200   18.3200 C   0  0  0  0  0  0
   36.1900   36.1200   18.1700 C   0  0  0  0  0  0
   35.3900   36.6800   17.1600 C   0  0  0  0  0  0
   35.9200   37.6500   16.3000 C   0  0  0  0  0  0
   37.7700   38.9800   15.6300 F   0  0  0  0  0  0
   39.1100   37.8100   17.5800 H   0  0  0  0  0  0
   38.2800   35.9900   19.2800 F   0  0  0  0  0  0
   34.3400   36.3600   17.0500 H   0  0  0  0  0  0
   35.3000   38.0900   15.5100 H   0  0  0  0  0  0
  1  7  1  0  0  0
  1 10  2  0  0  0
  1 11  1  0  0  0
  2  9  1  0  0  0
  2 12  2  0  0  0
  2 13  1  0  0  0
  3  4  1  0  0  0
  3  5  2  0  0  0
  3  6  1  0  0  0
  4  7  2  0  0  0
  4 14  1  0  0  0
  5 11  1  0  0  0
  5 12  1  0  0  0
  6  9  2  0  0  0
  6 15  1  0  0  0
  7 35  1  0  0  0
  8 11  1  0  0  0
  8 16  1  0  0  0
  8 17  1  0  0  0
  8 18  1  0  0  0
 13 19  1  0  0  0
 13 22  1  0  0  0
 20 21  1  0  0  0
 20 25  1  0  0  0
 20 26  1  0  0  0
 20 27  1  0  0  0
 21 22  1  0  0  0
 21 28  1  0  0  0
 21 29  1  0  0  0
 22 23  1  0  0  0
 22 30  1  0  0  0
 23 24  1  0  0  0
 23 31  1  0  0  0
 23 32  1  0  0  0
 24 25  1  0  0  0
 24 33  1  0  0  0
 24 34  1  0  0  0
 35 39  1  0  0  0
 36 37  1  0  0  0
 36 41  2  0  0  0
 36 42  1  0  0  0
 37 38  2  0  0  0
 37 43  1  0  0  0
 38 39  1  0  0  0
 38 44  1  0  0  0
 39 40  2  0  0  0
 40 41  1  0  0  0
 40 45  1  0  0  0
 41 46  1  0  0  0
M  END
> <s_m_entry_id>
27

> <s_m_entry_name>
lig_p38a_3fln.1

> <s_pdb_PDB_TITLE>
MX MODEL

> <i_pdb_PDB_Model>
1

> <r_pdb_PDB_CRYST1_a>
181.6

> <r_pdb_PDB_CRYST1_b>
135.86

> <r_pdb_PDB_CRYST1_c>
277.56

> <r_pdb_PDB_CRYST1_alpha>
90

> <r_pdb_PDB_CRYST1_beta>
90

> <r_pdb_PDB_CRYST1_gamma>
90

> <s_pdb_PDB_CRYST1_Space_Group>
P 1

> <i_pdb_PDB_CRYST1_z>
1

> <s_pdb_PDB_format_version>
3.0

> <s_m_Source_Path>
/users/home/dhahn3/projects/PLBenchmarks/PLBenchmarks/data/2019-12-09_p38/03_docked

> <s_m_Source_File>
lig_p38a_3fln.pdb

> <i_m_Source_File_Index>
1

$$$$
