@<TRIPOS>MOLECULE
lig_p38a_2n
 53 56 0 0 0
SMALL
GASTEIGER
****
Structure written by MMmdl.
@<TRIPOS>ATOM
      1 C          34.5500   34.9800   21.1800 C.ar    1  LIG1        0.2953
      2 C          34.0400   38.9800   23.7400 C.ar    1  LIG1        0.2173
      3 C          34.8000   37.8100   21.4400 C.ar    1  LIG1        0.0394
      4 C          35.2500   37.1300   20.2300 C.ar    1  LIG1       -0.0018
      5 C          34.3100   37.0400   22.5100 C.ar    1  LIG1        0.1487
      6 C          34.8500   39.2100   21.6200 C.ar    1  LIG1        0.0419
      7 C          35.1700   35.7800   20.1300 C.ar    1  LIG1        0.1935
      8 N          34.4800   39.7900   22.7800 N.ar    1  LIG1       -0.2222
      9 O          34.3300   33.7800   21.0200 O.2     1  LIG1       -0.2636
     10 N          34.2100   35.6200   22.3400 N.ar    1  LIG1       -0.2896
     11 N          33.9300   37.6500   23.6600 N.ar    1  LIG1       -0.1964
     12 N          33.6700   39.5700   24.9300 N.pl3   1  LIG1       -0.3104
     13 H          35.7000   37.7400   19.4700 H       1  LIG1        0.0664
     14 H          35.2200   39.8600   20.8400 H       1  LIG1        0.0838
     15 H          33.7900   40.5700   24.9700 H       1  LIG1        0.1492
     16 C          33.6800   34.8400   23.4400 C.3     1  LIG1        0.0302
     17 H          33.4600   35.5200   24.3100 H       1  LIG1        0.0494
     18 H          32.7300   34.3400   23.1200 H       1  LIG1        0.0494
     19 C          34.7000   33.7900   23.8700 C.3     1  LIG1       -0.0115
     20 H          34.9100   33.1100   23.0100 H       1  LIG1        0.0304
     21 H          35.6400   34.3000   24.1900 H       1  LIG1        0.0304
     22 C          34.1300   32.9800   25.0300 C.3     1  LIG1        0.0458
     23 H          34.6200   31.9700   25.0500 H       1  LIG1        0.0558
     24 H          34.3400   33.5100   25.9900 H       1  LIG1        0.0558
     25 O          32.7400   32.8300   24.8700 O.3     1  LIG1       -0.3949
     26 H          32.5800   31.8800   24.8600 H       1  LIG1        0.2094
     27 C          31.1100   38.2800   27.4300 C.3     1  LIG1        0.0493
     28 C          31.6700   39.0900   26.2600 C.3     1  LIG1       -0.0109
     29 C          33.1500   38.7500   26.0100 C.3     1  LIG1        0.0275
     30 C          33.9900   38.9700   27.2800 C.3     1  LIG1       -0.0109
     31 C          33.4200   38.1500   28.4500 C.3     1  LIG1        0.0493
     32 O          31.9500   38.4900   28.7000 O.3     1  LIG1       -0.3796
     33 H          31.1100   37.1900   27.1600 H       1  LIG1        0.0560
     34 H          30.0500   38.5600   27.6200 H       1  LIG1        0.0560
     35 H          31.5800   40.1800   26.4800 H       1  LIG1        0.0305
     36 H          31.0700   38.9000   25.3300 H       1  LIG1        0.0305
     37 H          33.2400   37.6900   25.6800 H       1  LIG1        0.0500
     38 H          35.0500   38.6800   27.0900 H       1  LIG1        0.0305
     39 H          33.9800   40.0500   27.5400 H       1  LIG1        0.0305
     40 H          33.5200   37.0600   28.2300 H       1  LIG1        0.0560
     41 H          34.0200   38.3500   29.3800 H       1  LIG1        0.0560
     42 O          35.6600   35.1800   19.0100 O.3     1  LIG1       -0.4477
     43 C          37.2600   38.0600   16.4500 C.ar    1  LIG1        0.1264
     44 C          35.9200   37.6700   16.3200 C.ar    1  LIG1       -0.0228
     45 C          35.3800   36.7000   17.1800 C.ar    1  LIG1       -0.0137
     46 C          36.1900   36.1200   18.1700 C.ar    1  LIG1        0.1639
     47 C          37.5300   36.5000   18.3000 C.ar    1  LIG1        0.1681
     48 C          38.0700   37.4800   17.4400 C.ar    1  LIG1        0.0125
     49 F          37.7700   38.9800   15.6300 F       1  LIG1       -0.2054
     50 H          35.2800   38.1300   15.5400 H       1  LIG1        0.0647
     51 H          34.3200   36.4000   17.0800 H       1  LIG1        0.0656
     52 F          38.2900   35.9500   19.2500 F       1  LIG1       -0.2015
     53 H          39.1200   37.7800   17.5500 H       1  LIG1        0.0676
@<TRIPOS>BOND
     1     1     7   ar
     2     1     9    2
     3     1    10   ar
     4     2     8   ar
     5     2    11   ar
     6     2    12    1
     7     3     4   ar
     8     3     5   ar
     9     3     6   ar
    10     4     7   ar
    11     4    13    1
    12     5    10   ar
    13     5    11   ar
    14     6     8   ar
    15     6    14    1
    16     7    42    1
    17    10    16    1
    18    12    15    1
    19    12    29    1
    20    16    17    1
    21    16    18    1
    22    16    19    1
    23    19    20    1
    24    19    21    1
    25    19    22    1
    26    22    23    1
    27    22    24    1
    28    22    25    1
    29    25    26    1
    30    27    28    1
    31    27    32    1
    32    27    33    1
    33    27    34    1
    34    28    29    1
    35    28    35    1
    36    28    36    1
    37    29    30    1
    38    29    37    1
    39    30    31    1
    40    30    38    1
    41    30    39    1
    42    31    32    1
    43    31    40    1
    44    31    41    1
    45    42    46    1
    46    43    44   ar
    47    43    48   ar
    48    43    49    1
    49    44    45   ar
    50    44    50    1
    51    45    46   ar
    52    45    51    1
    53    46    47   ar
    54    47    48   ar
    55    47    52    1
    56    48    53    1
