lig_p38a_2v
                    3D
 Structure written by MMmdl.
 35 37  0  0  1  0            999 V2000
   34.5500   34.9800   21.1800 C   0  0  0  0  0  0
   34.0400   38.9800   23.7400 C   0  0  0  0  0  0
   33.1600   38.9300   26.1300 C   0  0  0  0  0  0
   34.8000   37.8100   21.4400 C   0  0  0  0  0  0
   35.2500   37.1300   20.2300 C   0  0  0  0  0  0
   34.3100   37.0400   22.5100 C   0  0  0  0  0  0
   34.8500   39.2100   21.6200 C   0  0  0  0  0  0
   35.1700   35.7800   20.1300 C   0  0  0  0  0  0
   33.6700   34.8300   23.4600 C   0  0  0  0  0  0
   34.4800   39.7900   22.7800 N   0  0  0  0  0  0
   34.3300   33.7800   21.0200 O   0  0  0  0  0  0
   34.2100   35.6200   22.3400 N   0  0  0  0  0  0
   33.9300   37.6500   23.6600 N   0  0  0  0  0  0
   33.6700   39.5700   24.9300 N   0  0  0  0  0  0
   33.4900   37.8900   26.1500 H   0  0  0  0  0  0
   35.7000   37.7400   19.4700 H   0  0  0  0  0  0
   35.2200   39.8600   20.8400 H   0  0  0  0  0  0
   33.4500   35.4700   24.3200 H   0  0  0  0  0  0
   32.7400   34.3500   23.1600 H   0  0  0  0  0  0
   34.3400   34.0600   23.8300 H   0  0  0  0  0  0
   33.7900   40.5700   24.9700 H   0  0  0  0  0  0
   33.5300   39.4600   27.0100 H   0  0  0  0  0  0
   32.0700   38.9700   26.1300 H   0  0  0  0  0  0
   35.6600   35.1800   19.0100 O   0  0  0  0  0  0
   37.2600   38.0600   16.4500 C   0  0  0  0  0  0
   38.0800   37.4500   17.4200 C   0  0  0  0  0  0
   37.5400   36.4800   18.2800 C   0  0  0  0  0  0
   36.1900   36.1200   18.1700 C   0  0  0  0  0  0
   35.3700   36.7300   17.2100 C   0  0  0  0  0  0
   35.9100   37.7000   16.3500 C   0  0  0  0  0  0
   37.7700   38.9800   15.6300 F   0  0  0  0  0  0
   39.1400   37.7300   17.5000 H   0  0  0  0  0  0
   38.3100   35.9000   19.2000 F   0  0  0  0  0  0
   34.3100   36.4400   17.1200 H   0  0  0  0  0  0
   35.2700   38.1800   15.5900 H   0  0  0  0  0  0
  1  8  1  0  0  0
  1 11  2  0  0  0
  1 12  1  0  0  0
  2 10  1  0  0  0
  2 13  2  0  0  0
  2 14  1  0  0  0
  3 14  1  0  0  0
  3 15  1  0  0  0
  3 22  1  0  0  0
  3 23  1  0  0  0
  4  5  1  0  0  0
  4  6  2  0  0  0
  4  7  1  0  0  0
  5  8  2  0  0  0
  5 16  1  0  0  0
  6 12  1  0  0  0
  6 13  1  0  0  0
  7 10  2  0  0  0
  7 17  1  0  0  0
  8 24  1  0  0  0
  9 12  1  0  0  0
  9 18  1  0  0  0
  9 19  1  0  0  0
  9 20  1  0  0  0
 14 21  1  0  0  0
 24 28  1  0  0  0
 25 26  1  0  0  0
 25 30  2  0  0  0
 25 31  1  0  0  0
 26 27  2  0  0  0
 26 32  1  0  0  0
 27 28  1  0  0  0
 27 33  1  0  0  0
 28 29  2  0  0  0
 29 30  1  0  0  0
 29 34  1  0  0  0
 30 35  1  0  0  0
M  END
> <s_m_entry_id>
23

> <s_m_entry_name>
lig_p38a_2v.1

> <s_pdb_PDB_TITLE>
MX MODEL

> <i_pdb_PDB_Model>
1

> <r_pdb_PDB_CRYST1_a>
141.46

> <r_pdb_PDB_CRYST1_b>
135.86

> <r_pdb_PDB_CRYST1_c>
228.52

> <r_pdb_PDB_CRYST1_alpha>
90

> <r_pdb_PDB_CRYST1_beta>
90

> <r_pdb_PDB_CRYST1_gamma>
90

> <s_pdb_PDB_CRYST1_Space_Group>
P 1

> <i_pdb_PDB_CRYST1_z>
1

> <s_pdb_PDB_format_version>
3.0

> <s_m_Source_Path>
/users/home/dhahn3/projects/PLBenchmarks/PLBenchmarks/data/2019-12-09_p38/03_docked

> <s_m_Source_File>
lig_p38a_2v.pdb

> <i_m_Source_File_Index>
1

$$$$
