@<TRIPOS>MOLECULE
lig_p38a_3fly
 41 43 0 0 0
SMALL
GASTEIGER
****
Structure written by MMmdl.
@<TRIPOS>ATOM
      1 C          34.8500   39.2100   21.6200 C.ar    1  LIG1        0.0419
      2 C          34.3100   37.0400   22.5100 C.ar    1  LIG1        0.1484
      3 N          34.4800   39.7900   22.7800 N.ar    1  LIG1       -0.2222
      4 C          34.8000   37.8100   21.4400 C.ar    1  LIG1        0.0394
      5 C          35.2500   37.1300   20.2300 C.ar    1  LIG1       -0.0018
      6 C          35.1700   35.7800   20.1300 C.ar    1  LIG1        0.1934
      7 C          34.5500   34.9800   21.1800 C.ar    1  LIG1        0.2951
      8 C          34.0400   38.9800   23.7400 C.ar    1  LIG1        0.2172
      9 O          34.3300   33.7800   21.0200 O.2     1  LIG1       -0.2636
     10 N          34.2100   35.6200   22.3400 N.ar    1  LIG1       -0.2928
     11 C          33.7100   34.8400   23.4900 C.3     1  LIG1        0.0168
     12 N          33.9300   37.6500   23.6600 N.ar    1  LIG1       -0.1964
     13 N          33.6700   39.5700   24.9300 N.pl3   1  LIG1       -0.3111
     14 H          35.2200   39.8500   20.8300 H       1  LIG1        0.0838
     15 H          35.7000   37.7400   19.4700 H       1  LIG1        0.0664
     16 H          34.3500   34.0100   23.7900 H       1  LIG1        0.0457
     17 H          33.6200   35.4700   24.3700 H       1  LIG1        0.0457
     18 H          32.7300   34.4300   23.2600 H       1  LIG1        0.0457
     19 H          33.8100   40.5600   24.9800 H       1  LIG1        0.1492
     20 C          33.0900   38.7200   26.0500 C.3     1  LIG1        0.0177
     21 C          33.9000   38.9500   27.3400 C.3     1  LIG1       -0.0469
     22 C          31.6200   39.1100   26.2800 C.3     1  LIG1       -0.0469
     23 H          33.1500   37.6600   25.7700 H       1  LIG1        0.0493
     24 H          33.4800   38.3400   28.1400 H       1  LIG1        0.0247
     25 H          34.9400   38.6700   27.1700 H       1  LIG1        0.0247
     26 H          33.8400   40.0000   27.6100 H       1  LIG1        0.0247
     27 H          31.2100   38.5000   27.0900 H       1  LIG1        0.0247
     28 H          31.5700   40.1600   26.5600 H       1  LIG1        0.0247
     29 H          31.0500   38.9400   25.3700 H       1  LIG1        0.0247
     30 O          35.6600   35.1500   19.0200 O.3     1  LIG1       -0.4477
     31 C          37.0900   38.0000   16.3200 C.ar    1  LIG1        0.1264
     32 C          37.9500   37.4400   17.2800 C.ar    1  LIG1        0.0125
     33 C          37.4700   36.4800   18.1900 C.ar    1  LIG1        0.1681
     34 C          36.1200   36.0800   18.1400 C.ar    1  LIG1        0.1639
     35 C          35.2600   36.6400   17.1800 C.ar    1  LIG1       -0.0137
     36 C          35.7400   37.6000   16.2700 C.ar    1  LIG1       -0.0228
     37 F          37.5500   38.9100   15.4600 F       1  LIG1       -0.2054
     38 H          39.0100   37.7600   17.3200 H       1  LIG1        0.0676
     39 F          38.2900   35.9500   19.1000 F       1  LIG1       -0.2015
     40 H          34.2000   36.3300   17.1400 H       1  LIG1        0.0656
     41 H          35.0600   38.0300   15.5200 H       1  LIG1        0.0647
@<TRIPOS>BOND
     1     1     3   ar
     2     1     4   ar
     3     1    14    1
     4     2     4   ar
     5     2    10   ar
     6     2    12   ar
     7     3     8   ar
     8     4     5   ar
     9     5     6   ar
    10     5    15    1
    11     6     7   ar
    12     6    30    1
    13     7     9    2
    14     7    10   ar
    15     8    12   ar
    16     8    13    1
    17    10    11    1
    18    11    16    1
    19    11    17    1
    20    11    18    1
    21    13    19    1
    22    13    20    1
    23    20    21    1
    24    20    22    1
    25    20    23    1
    26    21    24    1
    27    21    25    1
    28    21    26    1
    29    22    27    1
    30    22    28    1
    31    22    29    1
    32    30    34    1
    33    31    32   ar
    34    31    36   ar
    35    31    37    1
    36    32    33   ar
    37    32    38    1
    38    33    34   ar
    39    33    39    1
    40    34    35   ar
    41    35    36   ar
    42    35    40    1
    43    36    41    1
