@<TRIPOS>MOLECULE
lig_p38a_2c
 45 48 0 0 0
SMALL
GASTEIGER
****
Structure written by MMmdl.
@<TRIPOS>ATOM
      1 C          34.5500   34.9800   21.1800 C.ar    1  LIG1        0.2604
      2 C          34.0400   38.9800   23.7400 C.ar    1  LIG1        0.2173
      3 C          34.8000   37.8100   21.4400 C.ar    1  LIG1        0.0365
      4 C          35.2500   37.1300   20.2300 C.ar    1  LIG1       -0.0367
      5 C          34.3100   37.0400   22.5100 C.ar    1  LIG1        0.1482
      6 C          34.8500   39.2100   21.6200 C.ar    1  LIG1        0.0418
      7 C          33.6300   34.8400   23.4300 C.3     1  LIG1        0.0167
      8 N          34.4800   39.7900   22.7800 N.ar    1  LIG1       -0.2222
      9 O          34.3300   33.7800   21.0200 O.2     1  LIG1       -0.2670
     10 N          34.2100   35.6200   22.3400 N.ar    1  LIG1       -0.2953
     11 N          33.9300   37.6500   23.6600 N.ar    1  LIG1       -0.1964
     12 N          33.6700   39.5700   24.9300 N.pl3   1  LIG1       -0.3104
     13 H          35.6900   37.7200   19.4400 H       1  LIG1        0.0633
     14 H          35.2200   39.8600   20.8400 H       1  LIG1        0.0838
     15 H          33.4200   35.4900   24.2800 H       1  LIG1        0.0457
     16 H          32.7000   34.3800   23.0900 H       1  LIG1        0.0457
     17 H          34.3300   34.0600   23.7300 H       1  LIG1        0.0457
     18 H          33.7400   40.5700   24.9900 H       1  LIG1        0.1492
     19 C          35.1700   35.7800   20.1300 C.ar    1  LIG1        0.0488
     20 C          36.5600   33.8100   16.6000 C.ar    1  LIG1       -0.0603
     21 C          36.9700   33.3500   17.8600 C.ar    1  LIG1       -0.0428
     22 C          36.5100   34.0000   19.0000 C.ar    1  LIG1        0.0488
     23 C          35.6500   35.0900   18.8900 C.ar    1  LIG1        0.0056
     24 C          35.2400   35.5500   17.6300 C.ar    1  LIG1       -0.0525
     25 C          35.7100   34.9000   16.4900 C.ar    1  LIG1       -0.0611
     26 H          36.9200   33.3100   15.7100 H       1  LIG1        0.0618
     27 H          37.6400   32.5100   17.9400 H       1  LIG1        0.0632
     28 CL         37.0132   33.4465   20.5599 Cl      1  LIG1       -0.0829
     29 H          34.5800   36.3900   17.5500 H       1  LIG1        0.0624
     30 H          35.3900   35.2400   15.5200 H       1  LIG1        0.0618
     31 C          31.3000   38.3600   27.6500 C.3     1  LIG1        0.0493
     32 C          31.8000   39.1800   26.4500 C.3     1  LIG1       -0.0109
     33 C          33.2100   38.7400   26.0300 C.3     1  LIG1        0.0275
     34 C          34.1900   38.8500   27.2100 C.3     1  LIG1       -0.0109
     35 C          33.7000   38.0200   28.4100 C.3     1  LIG1        0.0493
     36 O          32.2900   38.4600   28.8300 O.3     1  LIG1       -0.3796
     37 H          31.1900   37.2900   27.3500 H       1  LIG1        0.0560
     38 H          30.2900   38.7100   27.9700 H       1  LIG1        0.0560
     39 H          31.8100   40.2600   26.7200 H       1  LIG1        0.0305
     40 H          31.0900   39.0700   25.5900 H       1  LIG1        0.0305
     41 H          33.1800   37.6900   25.6600 H       1  LIG1        0.0500
     42 H          35.2000   38.4900   26.8900 H       1  LIG1        0.0305
     43 H          34.3000   39.9200   27.5100 H       1  LIG1        0.0305
     44 H          33.6900   36.9400   28.1300 H       1  LIG1        0.0560
     45 H          34.4100   38.1300   29.2600 H       1  LIG1        0.0560
@<TRIPOS>BOND
     1     1     9    2
     2     1    10   ar
     3     1    19   ar
     4     2     8   ar
     5     2    11   ar
     6     2    12    1
     7     3     4   ar
     8     3     5   ar
     9     3     6   ar
    10     4    13    1
    11     4    19   ar
    12     5    10   ar
    13     5    11   ar
    14     6     8   ar
    15     6    14    1
    16     7    10    1
    17     7    15    1
    18     7    16    1
    19     7    17    1
    20    12    18    1
    21    12    33    1
    22    19    23    1
    23    20    21   ar
    24    20    25   ar
    25    20    26    1
    26    21    22   ar
    27    21    27    1
    28    22    23   ar
    29    22    28    1
    30    23    24   ar
    31    24    25   ar
    32    24    29    1
    33    25    30    1
    34    31    32    1
    35    31    36    1
    36    31    37    1
    37    31    38    1
    38    32    33    1
    39    32    39    1
    40    32    40    1
    41    33    34    1
    42    33    41    1
    43    34    35    1
    44    34    42    1
    45    34    43    1
    46    35    36    1
    47    35    44    1
    48    35    45    1
