lig_p38a_2ee
                    3D
 Structure written by MMmdl.
 52 55  0  0  1  0            999 V2000
   34.5500   34.9800   21.1800 C   0  0  0  0  0  0
   34.0400   38.9800   23.7400 C   0  0  0  0  0  0
   34.8000   37.8100   21.4400 C   0  0  0  0  0  0
   35.2500   37.1300   20.2300 C   0  0  0  0  0  0
   34.3100   37.0400   22.5100 C   0  0  0  0  0  0
   34.8500   39.2100   21.6200 C   0  0  0  0  0  0
   35.1700   35.7800   20.1300 C   0  0  0  0  0  0
   33.6700   34.8300   23.4600 C   0  0  0  0  0  0
   34.4800   39.7900   22.7800 N   0  0  0  0  0  0
   34.3300   33.7800   21.0200 O   0  0  0  0  0  0
   34.2100   35.6200   22.3400 N   0  0  0  0  0  0
   33.9300   37.6500   23.6600 N   0  0  0  0  0  0
   33.6700   39.5700   24.9300 N   0  0  0  0  0  0
   35.7000   37.7400   19.4700 H   0  0  0  0  0  0
   35.2200   39.8600   20.8400 H   0  0  0  0  0  0
   33.4000   35.4700   24.3000 H   0  0  0  0  0  0
   32.7700   34.3000   23.1400 H   0  0  0  0  0  0
   34.3700   34.1000   23.8700 H   0  0  0  0  0  0
   33.7900   40.5700   24.9700 H   0  0  0  0  0  0
   31.1200   38.3000   27.4500 C   0  0  0  0  0  0
   31.6800   39.1100   26.2700 C   0  0  0  0  0  0
   33.1500   38.7500   26.0100 C   0  0  0  0  0  0
   34.0000   38.9500   27.2700 C   0  0  0  0  0  0
   33.4400   38.1300   28.4500 C   0  0  0  0  0  0
   31.1000   37.2200   27.1800 H   0  0  0  0  0  0
   30.0600   38.6000   27.6500 H   0  0  0  0  0  0
   31.6000   40.2000   26.5100 H   0  0  0  0  0  0
   31.0700   38.9300   25.3600 H   0  0  0  0  0  0
   33.2200   37.6900   25.6700 H   0  0  0  0  0  0
   35.0600   38.6500   27.0700 H   0  0  0  0  0  0
   34.0200   40.0300   27.5400 H   0  0  0  0  0  0
   33.5200   37.0400   28.2100 H   0  0  0  0  0  0
   34.0500   38.3100   29.3600 H   0  0  0  0  0  0
   32.0000   38.4700   28.6500 N   0  0  0  0  0  0
   31.5100   38.9100   29.8600 C   0  0  0  0  0  0
   30.4900   39.5600   29.9200 O   0  0  0  0  0  0
   32.2800   38.5700   31.1500 C   0  0  0  0  0  0
   33.1600   37.9800   30.9000 H   0  0  0  0  0  0
   32.5800   39.4800   31.6500 H   0  0  0  0  0  0
   31.6400   37.9900   31.8200 H   0  0  0  0  0  0
   35.6600   35.1800   19.0100 O   0  0  0  0  0  0
   37.2600   38.0600   16.4500 C   0  0  0  0  0  0
   38.0700   37.4600   17.4300 C   0  0  0  0  0  0
   37.5300   36.4900   18.2900 C   0  0  0  0  0  0
   36.1900   36.1200   18.1700 C   0  0  0  0  0  0
   35.3700   36.7200   17.2000 C   0  0  0  0  0  0
   35.9100   37.6900   16.3400 C   0  0  0  0  0  0
   37.7700   38.9800   15.6300 F   0  0  0  0  0  0
   39.1300   37.7500   17.5200 H   0  0  0  0  0  0
   38.3100   35.9200   19.2100 F   0  0  0  0  0  0
   34.3100   36.4300   17.1100 H   0  0  0  0  0  0
   35.2700   38.1600   15.5700 H   0  0  0  0  0  0
  1  7  1  0  0  0
  1 10  2  0  0  0
  1 11  1  0  0  0
  2  9  1  0  0  0
  2 12  2  0  0  0
  2 13  1  0  0  0
  3  4  1  0  0  0
  3  5  2  0  0  0
  3  6  1  0  0  0
  4  7  2  0  0  0
  4 14  1  0  0  0
  5 11  1  0  0  0
  5 12  1  0  0  0
  6  9  2  0  0  0
  6 15  1  0  0  0
  7 41  1  0  0  0
  8 11  1  0  0  0
  8 16  1  0  0  0
  8 17  1  0  0  0
  8 18  1  0  0  0
 13 19  1  0  0  0
 13 22  1  0  0  0
 20 21  1  0  0  0
 20 25  1  0  0  0
 20 26  1  0  0  0
 20 34  1  0  0  0
 21 22  1  0  0  0
 21 27  1  0  0  0
 21 28  1  0  0  0
 22 23  1  0  0  0
 22 29  1  0  0  0
 23 24  1  0  0  0
 23 30  1  0  0  0
 23 31  1  0  0  0
 24 32  1  0  0  0
 24 33  1  0  0  0
 24 34  1  0  0  0
 34 35  1  0  0  0
 35 36  2  0  0  0
 35 37  1  0  0  0
 37 38  1  0  0  0
 37 39  1  0  0  0
 37 40  1  0  0  0
 41 45  1  0  0  0
 42 43  1  0  0  0
 42 47  2  0  0  0
 42 48  1  0  0  0
 43 44  2  0  0  0
 43 49  1  0  0  0
 44 45  1  0  0  0
 44 50  1  0  0  0
 45 46  2  0  0  0
 46 47  1  0  0  0
 46 51  1  0  0  0
 47 52  1  0  0  0
M  END
> <s_m_entry_id>
4

> <s_m_entry_name>
lig_p38a_2ee.1

> <s_pdb_PDB_TITLE>
MX MODEL

> <i_pdb_PDB_Model>
1

> <r_pdb_PDB_CRYST1_a>
181.44

> <r_pdb_PDB_CRYST1_b>
135.86

> <r_pdb_PDB_CRYST1_c>
324.92

> <r_pdb_PDB_CRYST1_alpha>
90

> <r_pdb_PDB_CRYST1_beta>
90

> <r_pdb_PDB_CRYST1_gamma>
90

> <s_pdb_PDB_CRYST1_Space_Group>
P 1

> <i_pdb_PDB_CRYST1_z>
1

> <s_pdb_PDB_format_version>
3.0

> <s_m_Source_Path>
/users/home/dhahn3/projects/PLBenchmarks/PLBenchmarks/data/2019-12-09_p38/03_docked

> <s_m_Source_File>
lig_p38a_2ee.pdb

> <i_m_Source_File_Index>
1

$$$$
