@<TRIPOS>MOLECULE
lig_p38a_2z
 45 47 0 0 0
SMALL
GASTEIGER
****
Structure written by MMmdl.
@<TRIPOS>ATOM
      1 C          34.5500   34.9800   21.1800 C.ar    1  LIG1        0.2951
      2 C          34.0400   38.9800   23.7400 C.ar    1  LIG1        0.2175
      3 C          34.8000   37.8100   21.4400 C.ar    1  LIG1        0.0394
      4 C          35.2500   37.1300   20.2300 C.ar    1  LIG1       -0.0018
      5 C          34.3100   37.0400   22.5100 C.ar    1  LIG1        0.1484
      6 C          34.8500   39.2100   21.6200 C.ar    1  LIG1        0.0419
      7 C          35.1700   35.7800   20.1300 C.ar    1  LIG1        0.1934
      8 C          33.6700   34.8300   23.4600 C.3     1  LIG1        0.0168
      9 N          34.4800   39.7900   22.7800 N.ar    1  LIG1       -0.2222
     10 O          34.3300   33.7800   21.0200 O.2     1  LIG1       -0.2636
     11 N          34.2100   35.6200   22.3400 N.ar    1  LIG1       -0.2928
     12 N          33.9300   37.6500   23.6600 N.ar    1  LIG1       -0.1964
     13 N          33.6700   39.5700   24.9300 N.pl3   1  LIG1       -0.3062
     14 H          35.7000   37.7400   19.4700 H       1  LIG1        0.0664
     15 H          35.2200   39.8600   20.8400 H       1  LIG1        0.0838
     16 H          33.3800   35.4800   24.3000 H       1  LIG1        0.0457
     17 H          32.7800   34.2900   23.1400 H       1  LIG1        0.0457
     18 H          34.3700   34.1100   23.8800 H       1  LIG1        0.0457
     19 H          33.7900   40.5700   24.9700 H       1  LIG1        0.1495
     20 C          33.1200   38.7100   26.0600 C.3     1  LIG1        0.0521
     21 C          34.0000   38.8900   27.3100 C.3     1  LIG1        0.0649
     22 C          31.6800   39.1500   26.3800 C.3     1  LIG1       -0.0418
     23 C          33.1300   37.2300   25.6400 C.3     1  LIG1       -0.0418
     24 H          31.2900   38.5300   27.1900 H       1  LIG1        0.0251
     25 H          31.6800   40.1900   26.6800 H       1  LIG1        0.0251
     26 H          31.0600   39.0200   25.5000 H       1  LIG1        0.0251
     27 H          32.7400   36.6200   26.4500 H       1  LIG1        0.0251
     28 H          32.5100   37.1000   24.7500 H       1  LIG1        0.0251
     29 H          34.1600   36.9200   25.4100 H       1  LIG1        0.0251
     30 O          33.5000   38.1000   28.3600 O.3     1  LIG1       -0.3929
     31 H          35.0300   38.5900   27.0900 H       1  LIG1        0.0578
     32 H          34.0000   39.9400   27.6100 H       1  LIG1        0.0578
     33 H          34.0500   38.2200   29.1400 H       1  LIG1        0.2095
     34 O          35.6600   35.1800   19.0100 O.3     1  LIG1       -0.4477
     35 C          37.2600   38.0600   16.4500 C.ar    1  LIG1        0.1264
     36 C          38.0700   37.4700   17.4400 C.ar    1  LIG1        0.0125
     37 C          37.5300   36.4900   18.3000 C.ar    1  LIG1        0.1681
     38 C          36.1900   36.1200   18.1700 C.ar    1  LIG1        0.1639
     39 C          35.3800   36.7100   17.1900 C.ar    1  LIG1       -0.0137
     40 C          35.9100   37.6800   16.3300 C.ar    1  LIG1       -0.0228
     41 F          37.7700   38.9800   15.6300 F       1  LIG1       -0.2054
     42 H          39.1300   37.7600   17.5300 H       1  LIG1        0.0676
     43 F          38.3000   35.9300   19.2300 F       1  LIG1       -0.2015
     44 H          34.3200   36.4100   17.0900 H       1  LIG1        0.0656
     45 H          35.2800   38.1400   15.5600 H       1  LIG1        0.0647
@<TRIPOS>BOND
     1     1     7   ar
     2     1    10    2
     3     1    11   ar
     4     2     9   ar
     5     2    12   ar
     6     2    13    1
     7     3     4   ar
     8     3     5   ar
     9     3     6   ar
    10     4     7   ar
    11     4    14    1
    12     5    11   ar
    13     5    12   ar
    14     6     9   ar
    15     6    15    1
    16     7    34    1
    17     8    11    1
    18     8    16    1
    19     8    17    1
    20     8    18    1
    21    13    19    1
    22    13    20    1
    23    20    21    1
    24    20    22    1
    25    20    23    1
    26    21    30    1
    27    21    31    1
    28    21    32    1
    29    22    24    1
    30    22    25    1
    31    22    26    1
    32    23    27    1
    33    23    28    1
    34    23    29    1
    35    30    33    1
    36    34    38    1
    37    35    36   ar
    38    35    40   ar
    39    35    41    1
    40    36    37   ar
    41    36    42    1
    42    37    38   ar
    43    37    43    1
    44    38    39   ar
    45    39    40   ar
    46    39    44    1
    47    40    45    1
