lig_p38a_3flz
                    3D
 Structure written by MMmdl.
 46 49  0  0  1  0            999 V2000
   35.2500   37.1300   20.2300 C   0  0  0  0  0  0
   34.3100   37.0400   22.5100 C   0  0  0  0  0  0
   34.8000   37.8100   21.4400 C   0  0  0  0  0  0
   34.8500   39.2100   21.6200 C   0  0  0  0  0  0
   34.0400   38.9800   23.7400 C   0  0  0  0  0  0
   35.1700   35.7800   20.1300 C   0  0  0  0  0  0
   33.6300   34.8400   23.4300 C   0  0  0  0  0  0
   34.3300   33.7800   21.0200 O   0  0  0  0  0  0
   34.5500   34.9800   21.1800 C   0  0  0  0  0  0
   34.4800   39.7900   22.7800 N   0  0  0  0  0  0
   34.2100   35.6200   22.3400 N   0  0  0  0  0  0
   33.9300   37.6500   23.6600 N   0  0  0  0  0  0
   33.6700   39.5700   24.9300 N   0  0  0  0  0  0
   35.6900   37.7200   19.4400 H   0  0  0  0  0  0
   35.2200   39.8600   20.8400 H   0  0  0  0  0  0
   34.3400   34.0700   23.7500 H   0  0  0  0  0  0
   33.4000   35.5000   24.2700 H   0  0  0  0  0  0
   32.7100   34.3600   23.0800 H   0  0  0  0  0  0
   33.7300   40.5700   24.9800 H   0  0  0  0  0  0
   31.2800   38.2600   27.5900 C   0  0  0  0  0  0
   31.7600   39.0900   26.3800 C   0  0  0  0  0  0
   33.2200   38.7400   26.0300 C   0  0  0  0  0  0
   34.1400   38.9500   27.2500 C   0  0  0  0  0  0
   33.6600   38.1200   28.4500 C   0  0  0  0  0  0
   32.2000   38.4700   28.8000 O   0  0  0  0  0  0
   31.2600   37.1800   27.3100 H   0  0  0  0  0  0
   30.2300   38.5500   27.8500 H   0  0  0  0  0  0
   31.6900   40.1800   26.6200 H   0  0  0  0  0  0
   31.1100   38.9000   25.5000 H   0  0  0  0  0  0
   33.2800   37.6800   25.7000 H   0  0  0  0  0  0
   35.1900   38.6600   26.9900 H   0  0  0  0  0  0
   34.1600   40.0300   27.5200 H   0  0  0  0  0  0
   33.7300   37.0400   28.2100 H   0  0  0  0  0  0
   34.3100   38.3100   29.3300 H   0  0  0  0  0  0
   35.6600   35.1500   19.0200 O   0  0  0  0  0  0
   37.2400   37.9900   16.3900 C   0  0  0  0  0  0
   35.8900   37.6200   16.3000 C   0  0  0  0  0  0
   35.3500   36.6600   17.1800 C   0  0  0  0  0  0
   36.1700   36.0800   18.1600 C   0  0  0  0  0  0
   37.5200   36.4500   18.2600 C   0  0  0  0  0  0
   38.0600   37.4100   17.3800 C   0  0  0  0  0  0
   37.6500   38.7400   15.7000 H   0  0  0  0  0  0
   35.2400   38.0700   15.5200 H   0  0  0  0  0  0
   34.2900   36.3700   17.1000 H   0  0  0  0  0  0
   38.1700   35.9900   19.0300 H   0  0  0  0  0  0
   39.1200   37.7000   17.4500 H   0  0  0  0  0  0
  1  3  1  0  0  0
  1  6  2  0  0  0
  1 14  1  0  0  0
  2  3  1  0  0  0
  2 11  1  0  0  0
  2 12  2  0  0  0
  3  4  2  0  0  0
  4 10  1  0  0  0
  4 15  1  0  0  0
  5 10  2  0  0  0
  5 12  1  0  0  0
  5 13  1  0  0  0
  6  9  1  0  0  0
  6 35  1  0  0  0
  7 11  1  0  0  0
  7 16  1  0  0  0
  7 17  1  0  0  0
  7 18  1  0  0  0
  8  9  2  0  0  0
  9 11  1  0  0  0
 13 19  1  0  0  0
 13 22  1  0  0  0
 20 21  1  0  0  0
 20 25  1  0  0  0
 20 26  1  0  0  0
 20 27  1  0  0  0
 21 22  1  0  0  0
 21 28  1  0  0  0
 21 29  1  0  0  0
 22 23  1  0  0  0
 22 30  1  0  0  0
 23 24  1  0  0  0
 23 31  1  0  0  0
 23 32  1  0  0  0
 24 25  1  0  0  0
 24 33  1  0  0  0
 24 34  1  0  0  0
 35 39  1  0  0  0
 36 37  1  0  0  0
 36 41  2  0  0  0
 36 42  1  0  0  0
 37 38  2  0  0  0
 37 43  1  0  0  0
 38 39  1  0  0  0
 38 44  1  0  0  0
 39 40  2  0  0  0
 40 41  1  0  0  0
 40 45  1  0  0  0
 41 46  1  0  0  0
M  END
> <s_m_entry_id>
31

> <s_m_entry_name>
lig_p38a_3flz.1

> <s_pdb_PDB_TITLE>
MX MODEL

> <i_pdb_PDB_Model>
1

> <r_pdb_PDB_CRYST1_a>
177.7

> <r_pdb_PDB_CRYST1_b>
135.84

> <r_pdb_PDB_CRYST1_c>
276.18

> <r_pdb_PDB_CRYST1_alpha>
90

> <r_pdb_PDB_CRYST1_beta>
90

> <r_pdb_PDB_CRYST1_gamma>
90

> <s_pdb_PDB_CRYST1_Space_Group>
P 1

> <i_pdb_PDB_CRYST1_z>
1

> <s_pdb_PDB_format_version>
3.0

> <s_m_Source_Path>
/users/home/dhahn3/projects/PLBenchmarks/PLBenchmarks/data/2019-12-09_p38/03_docked

> <s_m_Source_File>
lig_p38a_3flz.pdb

> <i_m_Source_File_Index>
1

$$$$
