@<TRIPOS>MOLECULE
lig_p38a_2h
 46 49 0 0 0
SMALL
GASTEIGER
****
Structure written by MMmdl.
@<TRIPOS>ATOM
      1 C          34.5500   34.9800   21.1800 C.ar    1  LIG1        0.2664
      2 C          34.0400   38.9800   23.7400 C.ar    1  LIG1        0.2173
      3 C          34.8000   37.8100   21.4400 C.ar    1  LIG1        0.0370
      4 C          35.2500   37.1300   20.2300 C.ar    1  LIG1       -0.0306
      5 C          34.3100   37.0400   22.5100 C.ar    1  LIG1        0.1483
      6 C          34.8500   39.2100   21.6200 C.ar    1  LIG1        0.0418
      7 C          35.1700   35.7800   20.1300 C.ar    1  LIG1        0.0780
      8 C          33.6700   34.8300   23.4600 C.3     1  LIG1        0.0167
      9 N          34.4800   39.7900   22.7800 N.ar    1  LIG1       -0.2222
     10 O          34.3300   33.7800   21.0200 O.2     1  LIG1       -0.2664
     11 N          34.2100   35.6200   22.3400 N.ar    1  LIG1       -0.2949
     12 N          33.9300   37.6500   23.6600 N.ar    1  LIG1       -0.1964
     13 N          33.6700   39.5700   24.9300 N.pl3   1  LIG1       -0.3104
     14 H          35.7000   37.7400   19.4700 H       1  LIG1        0.0638
     15 H          35.2200   39.8600   20.8400 H       1  LIG1        0.0838
     16 H          33.4100   35.4700   24.3100 H       1  LIG1        0.0457
     17 H          32.7600   34.3100   23.1500 H       1  LIG1        0.0457
     18 H          34.3600   34.0900   23.8600 H       1  LIG1        0.0457
     19 H          33.7900   40.5700   24.9700 H       1  LIG1        0.1492
     20 C          31.1500   38.3500   27.5000 C.3     1  LIG1        0.0493
     21 C          31.7100   39.1700   26.3300 C.3     1  LIG1       -0.0109
     22 C          33.1500   38.7500   26.0100 C.3     1  LIG1        0.0275
     23 C          34.0500   38.8900   27.2500 C.3     1  LIG1       -0.0109
     24 C          33.4900   38.0700   28.4200 C.3     1  LIG1        0.0493
     25 O          32.0400   38.4900   28.7400 O.3     1  LIG1       -0.3796
     26 H          31.0800   37.2700   27.2100 H       1  LIG1        0.0560
     27 H          30.1100   38.6900   27.7400 H       1  LIG1        0.0560
     28 H          31.6800   40.2500   26.5800 H       1  LIG1        0.0305
     29 H          31.0600   39.0300   25.4200 H       1  LIG1        0.0305
     30 H          33.1700   37.6900   25.6500 H       1  LIG1        0.0500
     31 H          35.0900   38.5500   27.0100 H       1  LIG1        0.0305
     32 H          34.1100   39.9700   27.5400 H       1  LIG1        0.0305
     33 H          33.5200   36.9900   28.1700 H       1  LIG1        0.0560
     34 H          34.1300   38.2100   29.3300 H       1  LIG1        0.0560
     35 S          35.7900   35.0200   18.7200 S.3     1  LIG1       -0.0812
     36 C          37.5300   38.1500   15.9400 C.ar    1  LIG1       -0.0590
     37 C          36.1700   37.7900   15.8400 C.ar    1  LIG1       -0.0605
     38 C          35.6300   36.8200   16.7000 C.ar    1  LIG1       -0.0452
     39 C          36.4500   36.2000   17.6600 C.ar    1  LIG1        0.0480
     40 C          37.8100   36.5500   17.7600 C.ar    1  LIG1        0.1371
     41 C          38.3500   37.5300   16.9000 C.ar    1  LIG1       -0.0253
     42 H          37.9500   38.9100   15.2700 H       1  LIG1        0.0618
     43 H          35.5300   38.2800   15.0900 H       1  LIG1        0.0618
     44 H          34.5700   36.5500   16.6300 H       1  LIG1        0.0630
     45 F          38.5800   35.9700   18.6700 F       1  LIG1       -0.2043
     46 H          39.4100   37.8000   16.9800 H       1  LIG1        0.0646
@<TRIPOS>BOND
     1     1     7   ar
     2     1    10    2
     3     1    11   ar
     4     2     9   ar
     5     2    12   ar
     6     2    13    1
     7     3     4   ar
     8     3     5   ar
     9     3     6   ar
    10     4     7   ar
    11     4    14    1
    12     5    11   ar
    13     5    12   ar
    14     6     9   ar
    15     6    15    1
    16     7    35    1
    17     8    11    1
    18     8    16    1
    19     8    17    1
    20     8    18    1
    21    13    19    1
    22    13    22    1
    23    20    21    1
    24    20    25    1
    25    20    26    1
    26    20    27    1
    27    21    22    1
    28    21    28    1
    29    21    29    1
    30    22    23    1
    31    22    30    1
    32    23    24    1
    33    23    31    1
    34    23    32    1
    35    24    25    1
    36    24    33    1
    37    24    34    1
    38    35    39    1
    39    36    37   ar
    40    36    41   ar
    41    36    42    1
    42    37    38   ar
    43    37    43    1
    44    38    39   ar
    45    38    44    1
    46    39    40   ar
    47    40    41   ar
    48    40    45    1
    49    41    46    1
