@<TRIPOS>MOLECULE
lig_p38a_3flq
 47 49 0 0 0
SMALL
GASTEIGER
****
Structure written by MMmdl.
@<TRIPOS>ATOM
      1 C          34.0400   38.9800   23.7400 C.ar    1  LIG1        0.2173
      2 C          34.8000   37.8100   21.4400 C.ar    1  LIG1        0.0394
      3 C          35.2500   37.1300   20.2300 C.ar    1  LIG1       -0.0018
      4 C          34.3100   37.0400   22.5100 C.ar    1  LIG1        0.1484
      5 C          35.1700   35.7800   20.1300 C.ar    1  LIG1        0.1934
      6 N          34.2100   35.6200   22.3400 N.ar    1  LIG1       -0.2928
      7 C          34.5500   34.9800   21.1800 C.ar    1  LIG1        0.2951
      8 O          34.3300   33.7800   21.0200 O.2     1  LIG1       -0.2636
      9 C          34.8500   39.2100   21.6200 C.ar    1  LIG1        0.0419
     10 N          34.4800   39.7900   22.7800 N.ar    1  LIG1       -0.2222
     11 N          33.9300   37.6500   23.6600 N.ar    1  LIG1       -0.1964
     12 C          33.6600   34.8300   23.4500 C.3     1  LIG1        0.0168
     13 N          33.6700   39.5700   24.9300 N.pl3   1  LIG1       -0.3093
     14 H          35.6900   37.7400   19.4700 H       1  LIG1        0.0664
     15 H          35.2100   39.8600   20.8300 H       1  LIG1        0.0838
     16 H          34.2800   33.9700   23.7200 H       1  LIG1        0.0457
     17 H          33.5900   35.4200   24.3700 H       1  LIG1        0.0457
     18 H          32.6600   34.4700   23.2000 H       1  LIG1        0.0457
     19 H          33.8300   40.5600   24.9800 H       1  LIG1        0.1492
     20 C          33.0700   38.7200   26.0400 C.3     1  LIG1        0.0398
     21 C          33.9200   38.8700   27.3100 C.3     1  LIG1       -0.0451
     22 C          31.6300   39.2000   26.3300 C.3     1  LIG1        0.0835
     23 H          33.0500   37.6800   25.7300 H       1  LIG1        0.0511
     24 H          33.4900   38.2600   28.1100 H       1  LIG1        0.0248
     25 H          34.9400   38.5300   27.1100 H       1  LIG1        0.0248
     26 H          33.9400   39.9100   27.6200 H       1  LIG1        0.0248
     27 H          31.2000   38.5900   27.1200 H       1  LIG1        0.0518
     28 H          31.6500   40.2400   26.6300 H       1  LIG1        0.0518
     29 S          30.6400   39.0300   24.8500 S.O2    1  LIG1       -0.0321
     30 O          31.3400   39.7300   23.7400 O.2     1  LIG1       -0.1746
     31 C          30.5600   37.2800   24.4400 C.3     1  LIG1        0.0545
     32 O          29.2700   39.4900   25.1500 O.2     1  LIG1       -0.1746
     33 H          30.0500   36.7500   25.2400 H       1  LIG1        0.0464
     34 H          30.0100   37.1600   23.5100 H       1  LIG1        0.0464
     35 H          31.5700   36.8900   24.3200 H       1  LIG1        0.0464
     36 O          35.6600   35.1500   19.0200 O.3     1  LIG1       -0.4477
     37 C          37.3100   37.9800   16.4300 C.ar    1  LIG1        0.1264
     38 C          38.0700   37.4700   17.5000 C.ar    1  LIG1        0.0125
     39 C          37.5200   36.5200   18.3700 C.ar    1  LIG1        0.1681
     40 C          36.2000   36.0800   18.1700 C.ar    1  LIG1        0.1639
     41 C          35.4300   36.5900   17.1100 C.ar    1  LIG1       -0.0137
     42 C          35.9900   37.5400   16.2400 C.ar    1  LIG1       -0.0228
     43 F          37.8400   38.8800   15.6100 F       1  LIG1       -0.2054
     44 H          39.1100   37.8200   17.6500 H       1  LIG1        0.0676
     45 F          38.2400   36.0300   19.3800 F       1  LIG1       -0.2015
     46 H          34.4000   36.2400   16.9600 H       1  LIG1        0.0656
     47 H          35.3900   37.9400   15.4000 H       1  LIG1        0.0647
@<TRIPOS>BOND
     1     1    10   ar
     2     1    11   ar
     3     1    13    1
     4     2     3   ar
     5     2     4   ar
     6     2     9   ar
     7     3     5   ar
     8     3    14    1
     9     4     6   ar
    10     4    11   ar
    11     5     7   ar
    12     5    36    1
    13     6     7   ar
    14     6    12    1
    15     7     8    2
    16     9    10   ar
    17     9    15    1
    18    12    16    1
    19    12    17    1
    20    12    18    1
    21    13    19    1
    22    13    20    1
    23    20    21    1
    24    20    22    1
    25    20    23    1
    26    21    24    1
    27    21    25    1
    28    21    26    1
    29    22    27    1
    30    22    28    1
    31    22    29    1
    32    29    30    2
    33    29    31    1
    34    29    32    2
    35    31    33    1
    36    31    34    1
    37    31    35    1
    38    36    40    1
    39    37    38   ar
    40    37    42   ar
    41    37    43    1
    42    38    39   ar
    43    38    44    1
    44    39    40   ar
    45    39    45    1
    46    40    41   ar
    47    41    42   ar
    48    41    46    1
    49    42    47    1
