@<TRIPOS>MOLECULE
lig_p38a_2k
 43 46 0 0 0
SMALL
GASTEIGER
****
Structure written by MMmdl.
@<TRIPOS>ATOM
      1 C          34.5500   34.9800   21.1800 C.ar    1  LIG1        0.2927
      2 C          34.0400   38.9800   23.7400 C.ar    1  LIG1        0.2173
      3 C          34.8000   37.8100   21.4400 C.ar    1  LIG1        0.0392
      4 C          35.2500   37.1300   20.2300 C.ar    1  LIG1       -0.0018
      5 C          34.3100   37.0400   22.5100 C.ar    1  LIG1        0.1461
      6 C          34.8500   39.2100   21.6200 C.ar    1  LIG1        0.0419
      7 C          35.1700   35.7800   20.1300 C.ar    1  LIG1        0.1932
      8 H          33.8400   35.0800   23.1100 H       1  LIG1        0.1705
      9 N          34.4800   39.7900   22.7800 N.ar    1  LIG1       -0.2222
     10 O          34.3300   33.7800   21.0200 O.2     1  LIG1       -0.2638
     11 N          34.2100   35.6200   22.3400 N.ar    1  LIG1       -0.3038
     12 N          33.9300   37.6500   23.6600 N.ar    1  LIG1       -0.1966
     13 N          33.6700   39.5700   24.9300 N.pl3   1  LIG1       -0.3104
     14 H          35.7000   37.7400   19.4700 H       1  LIG1        0.0664
     15 H          35.2200   39.8600   20.8400 H       1  LIG1        0.0838
     16 H          33.7900   40.5700   24.9700 H       1  LIG1        0.1492
     17 C          31.1200   38.3100   27.4600 C.3     1  LIG1        0.0493
     18 C          31.6800   39.1200   26.2900 C.3     1  LIG1       -0.0109
     19 C          33.1500   38.7500   26.0100 C.3     1  LIG1        0.0275
     20 C          34.0100   38.9400   27.2700 C.3     1  LIG1       -0.0109
     21 C          33.4500   38.1200   28.4400 C.3     1  LIG1        0.0493
     22 O          31.9900   38.4900   28.7200 O.3     1  LIG1       -0.3796
     23 H          31.1000   37.2300   27.1800 H       1  LIG1        0.0560
     24 H          30.0700   38.6200   27.6700 H       1  LIG1        0.0560
     25 H          31.6200   40.2100   26.5200 H       1  LIG1        0.0305
     26 H          31.0700   38.9500   25.3700 H       1  LIG1        0.0305
     27 H          33.2100   37.6900   25.6700 H       1  LIG1        0.0500
     28 H          35.0700   38.6300   27.0600 H       1  LIG1        0.0305
     29 H          34.0400   40.0200   27.5400 H       1  LIG1        0.0305
     30 H          33.5200   37.0300   28.2000 H       1  LIG1        0.0560
     31 H          34.0700   38.2900   29.3600 H       1  LIG1        0.0560
     32 O          35.6600   35.1800   19.0100 O.3     1  LIG1       -0.4477
     33 C          37.2600   38.0600   16.4500 C.ar    1  LIG1        0.1264
     34 C          38.0800   37.4500   17.4200 C.ar    1  LIG1        0.0125
     35 C          37.5400   36.4800   18.2800 C.ar    1  LIG1        0.1681
     36 C          36.1900   36.1200   18.1700 C.ar    1  LIG1        0.1639
     37 C          35.3700   36.7300   17.2100 C.ar    1  LIG1       -0.0137
     38 C          35.9100   37.7000   16.3500 C.ar    1  LIG1       -0.0228
     39 F          37.7700   38.9800   15.6300 F       1  LIG1       -0.2054
     40 H          39.1400   37.7300   17.5000 H       1  LIG1        0.0676
     41 F          38.3100   35.9000   19.2000 F       1  LIG1       -0.2015
     42 H          34.3100   36.4400   17.1200 H       1  LIG1        0.0656
     43 H          35.2700   38.1800   15.5900 H       1  LIG1        0.0647
@<TRIPOS>BOND
     1     1     7   ar
     2     1    10    2
     3     1    11   ar
     4     2     9   ar
     5     2    12   ar
     6     2    13    1
     7     3     4   ar
     8     3     5   ar
     9     3     6   ar
    10     4     7   ar
    11     4    14    1
    12     5    11   ar
    13     5    12   ar
    14     6     9   ar
    15     6    15    1
    16     7    32    1
    17     8    11    1
    18    13    16    1
    19    13    19    1
    20    17    18    1
    21    17    22    1
    22    17    23    1
    23    17    24    1
    24    18    19    1
    25    18    25    1
    26    18    26    1
    27    19    20    1
    28    19    27    1
    29    20    21    1
    30    20    28    1
    31    20    29    1
    32    21    22    1
    33    21    30    1
    34    21    31    1
    35    32    36    1
    36    33    34   ar
    37    33    38   ar
    38    33    39    1
    39    34    35   ar
    40    34    40    1
    41    35    36   ar
    42    35    41    1
    43    36    37   ar
    44    37    38   ar
    45    37    42    1
    46    38    43    1
