@<TRIPOS>MOLECULE
lig_p38a_2g
 46 49 0 0 0
SMALL
GASTEIGER
****
Structure written by MMmdl.
@<TRIPOS>ATOM
      1 C          34.5500   34.9800   21.1800 C.ar    1  LIG1        0.2951
      2 C          34.0400   38.9800   23.7400 C.ar    1  LIG1        0.2173
      3 C          34.8000   37.8100   21.4400 C.ar    1  LIG1        0.0394
      4 C          35.2500   37.1300   20.2300 C.ar    1  LIG1       -0.0018
      5 C          34.3100   37.0400   22.5100 C.ar    1  LIG1        0.1484
      6 C          34.8500   39.2100   21.6200 C.ar    1  LIG1        0.0419
      7 C          35.1700   35.7800   20.1300 C.ar    1  LIG1        0.1934
      8 C          33.6700   34.8300   23.4600 C.3     1  LIG1        0.0168
      9 N          34.4800   39.7900   22.7800 N.ar    1  LIG1       -0.2222
     10 O          34.3300   33.7800   21.0200 O.2     1  LIG1       -0.2636
     11 N          34.2100   35.6200   22.3400 N.ar    1  LIG1       -0.2928
     12 N          33.9300   37.6500   23.6600 N.ar    1  LIG1       -0.1964
     13 N          33.6700   39.5700   24.9300 N.pl3   1  LIG1       -0.3104
     14 H          35.7000   37.7400   19.4700 H       1  LIG1        0.0664
     15 H          35.2200   39.8600   20.8400 H       1  LIG1        0.0838
     16 H          33.4000   35.4700   24.3000 H       1  LIG1        0.0457
     17 H          32.7700   34.3000   23.1400 H       1  LIG1        0.0457
     18 H          34.3700   34.1000   23.8700 H       1  LIG1        0.0457
     19 H          33.7900   40.5700   24.9700 H       1  LIG1        0.1492
     20 C          31.1300   38.3300   27.4800 C.3     1  LIG1        0.0493
     21 C          31.7000   39.1500   26.3100 C.3     1  LIG1       -0.0109
     22 C          33.1500   38.7500   26.0100 C.3     1  LIG1        0.0275
     23 C          34.0300   38.9100   27.2600 C.3     1  LIG1       -0.0109
     24 C          33.4700   38.1000   28.4300 C.3     1  LIG1        0.0493
     25 O          32.0100   38.4900   28.7300 O.3     1  LIG1       -0.3796
     26 H          31.0900   37.2500   27.2000 H       1  LIG1        0.0560
     27 H          30.0900   38.6500   27.7100 H       1  LIG1        0.0560
     28 H          31.6500   40.2300   26.5500 H       1  LIG1        0.0305
     29 H          31.0600   38.9900   25.4000 H       1  LIG1        0.0305
     30 H          33.1900   37.6900   25.6600 H       1  LIG1        0.0500
     31 H          35.0800   38.5900   27.0300 H       1  LIG1        0.0305
     32 H          34.0800   39.9900   27.5400 H       1  LIG1        0.0305
     33 H          33.5200   37.0100   28.1900 H       1  LIG1        0.0560
     34 H          34.1000   38.2500   29.3400 H       1  LIG1        0.0560
     35 O          35.6600   35.1800   19.0100 O.3     1  LIG1       -0.4477
     36 C          37.2600   38.0600   16.4500 C.ar    1  LIG1       -0.0588
     37 C          38.0400   37.5300   17.4900 C.ar    1  LIG1       -0.0228
     38 C          37.5100   36.5600   18.3500 C.ar    1  LIG1        0.1654
     39 C          36.1900   36.1200   18.1700 C.ar    1  LIG1        0.1637
     40 C          35.4000   36.6500   17.1300 C.ar    1  LIG1       -0.0165
     41 C          35.9400   37.6200   16.2700 C.ar    1  LIG1       -0.0581
     42 H          37.6800   38.8200   15.7800 H       1  LIG1        0.0618
     43 H          39.0800   37.8800   17.6300 H       1  LIG1        0.0647
     44 F          38.2500   36.0600   19.3400 F       1  LIG1       -0.2016
     45 H          34.3700   36.3000   16.9900 H       1  LIG1        0.0655
     46 H          35.3300   38.0300   15.4600 H       1  LIG1        0.0619
@<TRIPOS>BOND
     1     1     7   ar
     2     1    10    2
     3     1    11   ar
     4     2     9   ar
     5     2    12   ar
     6     2    13    1
     7     3     4   ar
     8     3     5   ar
     9     3     6   ar
    10     4     7   ar
    11     4    14    1
    12     5    11   ar
    13     5    12   ar
    14     6     9   ar
    15     6    15    1
    16     7    35    1
    17     8    11    1
    18     8    16    1
    19     8    17    1
    20     8    18    1
    21    13    19    1
    22    13    22    1
    23    20    21    1
    24    20    25    1
    25    20    26    1
    26    20    27    1
    27    21    22    1
    28    21    28    1
    29    21    29    1
    30    22    23    1
    31    22    30    1
    32    23    24    1
    33    23    31    1
    34    23    32    1
    35    24    25    1
    36    24    33    1
    37    24    34    1
    38    35    39    1
    39    36    37   ar
    40    36    41   ar
    41    36    42    1
    42    37    38   ar
    43    37    43    1
    44    38    39   ar
    45    38    44    1
    46    39    40   ar
    47    40    41   ar
    48    40    45    1
    49    41    46    1
