@<TRIPOS>MOLECULE
lig_p38a_2r
 56 59 0 0 0
SMALL
GASTEIGER
****
Structure written by MMmdl.
@<TRIPOS>ATOM
      1 C          34.5500   34.9800   21.1800 C.ar    1  LIG1        0.2954
      2 C          34.0400   38.9800   23.7400 C.ar    1  LIG1        0.2173
      3 C          34.8000   37.8100   21.4400 C.ar    1  LIG1        0.0394
      4 C          35.2500   37.1300   20.2300 C.ar    1  LIG1       -0.0018
      5 C          34.3100   37.0400   22.5100 C.ar    1  LIG1        0.1487
      6 C          34.8500   39.2100   21.6200 C.ar    1  LIG1        0.0419
      7 C          35.1700   35.7800   20.1300 C.ar    1  LIG1        0.1935
      8 N          34.4800   39.7900   22.7800 N.ar    1  LIG1       -0.2222
      9 O          34.3300   33.7800   21.0200 O.2     1  LIG1       -0.2636
     10 N          34.2100   35.6200   22.3400 N.ar    1  LIG1       -0.2869
     11 N          33.9300   37.6500   23.6600 N.ar    1  LIG1       -0.1964
     12 N          33.6700   39.5700   24.9300 N.pl3   1  LIG1       -0.3104
     13 H          35.7000   37.7400   19.4700 H       1  LIG1        0.0664
     14 H          35.2200   39.8600   20.8400 H       1  LIG1        0.0838
     15 H          33.7900   40.5700   24.9700 H       1  LIG1        0.1492
     16 C          33.6800   34.8400   23.4400 C.3     1  LIG1        0.0565
     17 H          33.4600   35.5200   24.3100 H       1  LIG1        0.0521
     18 H          32.7300   34.3400   23.1200 H       1  LIG1        0.0521
     19 C          34.7000   33.7900   23.8700 C.3     1  LIG1        0.0784
     20 O          34.9700   32.9400   22.7800 O.3     1  LIG1       -0.3874
     21 H          34.1300   32.5300   22.5500 H       1  LIG1        0.2102
     22 C          34.1300   32.9800   25.0300 C.3     1  LIG1       -0.0347
     23 H          33.1200   32.5900   24.7600 H       1  LIG1        0.0258
     24 H          34.8200   32.1200   25.2500 H       1  LIG1        0.0258
     25 H          34.0500   33.6300   25.9400 H       1  LIG1        0.0258
     26 C          35.9900   34.4800   24.3100 C.3     1  LIG1       -0.0347
     27 H          36.7400   33.7100   24.6200 H       1  LIG1        0.0258
     28 H          36.4000   35.0800   23.4600 H       1  LIG1        0.0258
     29 H          35.7700   35.1600   25.1700 H       1  LIG1        0.0258
     30 C          31.1400   38.3400   27.4900 C.3     1  LIG1        0.0493
     31 C          31.7000   39.1600   26.3200 C.3     1  LIG1       -0.0109
     32 C          33.1500   38.7500   26.0100 C.3     1  LIG1        0.0275
     33 C          34.0400   38.9000   27.2500 C.3     1  LIG1       -0.0109
     34 C          33.4800   38.0800   28.4300 C.3     1  LIG1        0.0493
     35 O          32.0300   38.4900   28.7400 O.3     1  LIG1       -0.3796
     36 H          31.0800   37.2600   27.2000 H       1  LIG1        0.0560
     37 H          30.1000   38.6700   27.7200 H       1  LIG1        0.0560
     38 H          31.6600   40.2400   26.5700 H       1  LIG1        0.0305
     39 H          31.0600   39.0100   25.4100 H       1  LIG1        0.0305
     40 H          33.1700   37.6900   25.6600 H       1  LIG1        0.0500
     41 H          35.0800   38.5700   27.0200 H       1  LIG1        0.0305
     42 H          34.1000   39.9800   27.5400 H       1  LIG1        0.0305
     43 H          33.5200   37.0000   28.1800 H       1  LIG1        0.0560
     44 H          34.1200   38.2300   29.3300 H       1  LIG1        0.0560
     45 O          35.6600   35.1800   19.0100 O.3     1  LIG1       -0.4477
     46 C          37.2600   38.0600   16.4500 C.ar    1  LIG1        0.1264
     47 C          38.0600   37.4900   17.4600 C.ar    1  LIG1        0.0125
     48 C          37.5200   36.5200   18.3200 C.ar    1  LIG1        0.1681
     49 C          36.1900   36.1200   18.1700 C.ar    1  LIG1        0.1639
     50 C          35.3900   36.6800   17.1600 C.ar    1  LIG1       -0.0137
     51 C          35.9200   37.6500   16.3000 C.ar    1  LIG1       -0.0228
     52 F          37.7700   38.9800   15.6300 F       1  LIG1       -0.2054
     53 H          39.1100   37.8100   17.5800 H       1  LIG1        0.0676
     54 F          38.2800   35.9900   19.2800 F       1  LIG1       -0.2015
     55 H          34.3400   36.3600   17.0500 H       1  LIG1        0.0656
     56 H          35.3000   38.0900   15.5100 H       1  LIG1        0.0647
@<TRIPOS>BOND
     1     1     7   ar
     2     1     9    2
     3     1    10   ar
     4     2     8   ar
     5     2    11   ar
     6     2    12    1
     7     3     4   ar
     8     3     5   ar
     9     3     6   ar
    10     4     7   ar
    11     4    13    1
    12     5    10   ar
    13     5    11   ar
    14     6     8   ar
    15     6    14    1
    16     7    45    1
    17    10    16    1
    18    12    15    1
    19    12    32    1
    20    16    17    1
    21    16    18    1
    22    16    19    1
    23    19    20    1
    24    19    22    1
    25    19    26    1
    26    20    21    1
    27    22    23    1
    28    22    24    1
    29    22    25    1
    30    26    27    1
    31    26    28    1
    32    26    29    1
    33    30    31    1
    34    30    35    1
    35    30    36    1
    36    30    37    1
    37    31    32    1
    38    31    38    1
    39    31    39    1
    40    32    33    1
    41    32    40    1
    42    33    34    1
    43    33    41    1
    44    33    42    1
    45    34    35    1
    46    34    43    1
    47    34    44    1
    48    45    49    1
    49    46    47   ar
    50    46    51   ar
    51    46    52    1
    52    47    48   ar
    53    47    53    1
    54    48    49   ar
    55    48    54    1
    56    49    50   ar
    57    50    51   ar
    58    50    55    1
    59    51    56    1
