@<TRIPOS>MOLECULE
lig_p38a_2i
 48 51 0 0 0
SMALL
GASTEIGER
****
Structure written by MMmdl.
@<TRIPOS>ATOM
      1 C          38.4300   36.3900   16.6800 C.ar    1  LIG1       -0.0262
      2 C          34.5500   34.9800   21.1800 C.ar    1  LIG1        0.2561
      3 C          37.7900   35.8500   17.8200 C.ar    1  LIG1        0.1269
      4 C          34.0400   38.9800   23.7400 C.ar    1  LIG1        0.2173
      5 C          34.8000   37.8100   21.4400 C.ar    1  LIG1        0.0362
      6 C          35.2500   37.1300   20.2300 C.ar    1  LIG1       -0.0410
      7 C          37.6800   36.7500   15.5500 C.ar    1  LIG1       -0.0590
      8 C          36.2900   36.5500   15.5400 C.ar    1  LIG1       -0.0613
      9 C          35.6500   35.9900   16.6600 C.ar    1  LIG1       -0.0555
     10 C          34.3100   37.0400   22.5100 C.ar    1  LIG1        0.1482
     11 C          34.8500   39.2100   21.6200 C.ar    1  LIG1        0.0418
     12 C          35.1700   35.7800   20.1300 C.ar    1  LIG1        0.0222
     13 C          36.4000   35.6600   17.8100 C.ar    1  LIG1       -0.0077
     14 C          33.6700   34.8300   23.4600 C.3     1  LIG1        0.0166
     15 F          38.5100   35.5500   18.9000 F       1  LIG1       -0.2052
     16 C          35.6900   35.0000   18.9600 C.3     1  LIG1        0.0054
     17 N          34.4800   39.7900   22.7800 N.ar    1  LIG1       -0.2222
     18 O          34.3300   33.7800   21.0200 O.2     1  LIG1       -0.2673
     19 N          34.2100   35.6200   22.3400 N.ar    1  LIG1       -0.2956
     20 N          33.9300   37.6500   23.6600 N.ar    1  LIG1       -0.1964
     21 N          33.6700   39.5700   24.9300 N.pl3   1  LIG1       -0.3104
     22 H          39.5000   36.5400   16.6800 H       1  LIG1        0.0646
     23 H          35.7000   37.7400   19.4700 H       1  LIG1        0.0630
     24 H          35.7100   36.8200   14.6700 H       1  LIG1        0.0618
     25 H          34.5900   35.8100   16.6400 H       1  LIG1        0.0621
     26 H          35.2200   39.8600   20.8400 H       1  LIG1        0.0838
     27 H          33.4400   35.4700   24.3200 H       1  LIG1        0.0457
     28 H          32.7400   34.3400   23.1600 H       1  LIG1        0.0457
     29 H          34.3500   34.0600   23.8400 H       1  LIG1        0.0457
     30 H          33.7900   40.5700   24.9700 H       1  LIG1        0.1492
     31 H          38.1600   37.1900   14.6900 H       1  LIG1        0.0618
     32 H          36.4300   34.2800   19.3100 H       1  LIG1        0.0364
     33 H          34.8700   34.4700   18.4700 H       1  LIG1        0.0364
     34 C          31.1500   38.3500   27.5000 C.3     1  LIG1        0.0493
     35 C          31.7100   39.1700   26.3300 C.3     1  LIG1       -0.0109
     36 C          33.1500   38.7500   26.0100 C.3     1  LIG1        0.0275
     37 C          34.0500   38.8900   27.2500 C.3     1  LIG1       -0.0109
     38 C          33.4900   38.0700   28.4200 C.3     1  LIG1        0.0493
     39 O          32.0400   38.4900   28.7400 O.3     1  LIG1       -0.3796
     40 H          31.0800   37.2700   27.2100 H       1  LIG1        0.0560
     41 H          30.1100   38.6900   27.7400 H       1  LIG1        0.0560
     42 H          31.6800   40.2500   26.5800 H       1  LIG1        0.0305
     43 H          31.0600   39.0300   25.4200 H       1  LIG1        0.0305
     44 H          33.1700   37.6900   25.6500 H       1  LIG1        0.0500
     45 H          35.0900   38.5500   27.0100 H       1  LIG1        0.0305
     46 H          34.1100   39.9700   27.5400 H       1  LIG1        0.0305
     47 H          33.5200   36.9900   28.1700 H       1  LIG1        0.0560
     48 H          34.1300   38.2100   29.3300 H       1  LIG1        0.0560
@<TRIPOS>BOND
     1     1     3   ar
     2     1     7   ar
     3     1    22    1
     4     2    12   ar
     5     2    18    2
     6     2    19   ar
     7     3    13   ar
     8     3    15    1
     9     4    17   ar
    10     4    20   ar
    11     4    21    1
    12     5     6   ar
    13     5    10   ar
    14     5    11   ar
    15     6    12   ar
    16     6    23    1
    17     7     8   ar
    18     7    31    1
    19     8     9   ar
    20     8    24    1
    21     9    13   ar
    22     9    25    1
    23    10    19   ar
    24    10    20   ar
    25    11    17   ar
    26    11    26    1
    27    12    16    1
    28    13    16    1
    29    14    19    1
    30    14    27    1
    31    14    28    1
    32    14    29    1
    33    16    32    1
    34    16    33    1
    35    21    30    1
    36    21    36    1
    37    34    35    1
    38    34    39    1
    39    34    40    1
    40    34    41    1
    41    35    36    1
    42    35    42    1
    43    35    43    1
    44    36    37    1
    45    36    44    1
    46    37    38    1
    47    37    45    1
    48    37    46    1
    49    38    39    1
    50    38    47    1
    51    38    48    1
