@<TRIPOS>MOLECULE
lig_p38a_2s
 54 57 0 0 0
SMALL
GASTEIGER
****
Structure written by MMmdl.
@<TRIPOS>ATOM
      1 C          34.5500   34.9800   21.1800 C.ar    1  LIG1        0.2954
      2 C          34.0400   38.9800   23.7400 C.ar    1  LIG1        0.2173
      3 C          34.8000   37.8100   21.4400 C.ar    1  LIG1        0.0394
      4 C          35.2500   37.1300   20.2300 C.ar    1  LIG1       -0.0018
      5 C          34.3100   37.0400   22.5100 C.ar    1  LIG1        0.1487
      6 C          34.8500   39.2100   21.6200 C.ar    1  LIG1        0.0419
      7 C          35.1700   35.7800   20.1300 C.ar    1  LIG1        0.1935
      8 N          34.4800   39.7900   22.7800 N.ar    1  LIG1       -0.2222
      9 O          34.3300   33.7800   21.0200 O.2     1  LIG1       -0.2636
     10 N          34.2100   35.6200   22.3400 N.ar    1  LIG1       -0.2871
     11 N          33.9300   37.6500   23.6600 N.ar    1  LIG1       -0.1964
     12 N          33.6700   39.5700   24.9300 N.pl3   1  LIG1       -0.3104
     13 H          35.7000   37.7400   19.4700 H       1  LIG1        0.0664
     14 H          35.2200   39.8600   20.8400 H       1  LIG1        0.0838
     15 H          33.7900   40.5700   24.9700 H       1  LIG1        0.1492
     16 C          33.6800   34.8400   23.4400 C.3     1  LIG1        0.0563
     17 H          33.4600   35.5200   24.3100 H       1  LIG1        0.0520
     18 H          32.7300   34.3400   23.1200 H       1  LIG1        0.0520
     19 C          34.7000   33.7900   23.8700 C.3     1  LIG1        0.0962
     20 O          34.9700   32.9400   22.7800 O.3     1  LIG1       -0.3878
     21 H          34.1300   32.5300   22.5500 H       1  LIG1        0.2100
     22 C          34.1300   32.9800   25.0300 C.3     1  LIG1        0.0718
     23 H          34.3600   33.5000   25.9900 H       1  LIG1        0.0583
     24 H          34.6000   31.9600   25.0300 H       1  LIG1        0.0583
     25 H          35.6200   34.2800   24.1800 H       1  LIG1        0.0634
     26 O          32.7400   32.8500   24.8800 O.3     1  LIG1       -0.3924
     27 H          32.6000   32.4000   24.0500 H       1  LIG1        0.2095
     28 C          31.1200   38.3100   27.4600 C.3     1  LIG1        0.0493
     29 C          31.6800   39.1200   26.2900 C.3     1  LIG1       -0.0109
     30 C          33.1500   38.7500   26.0100 C.3     1  LIG1        0.0275
     31 C          34.0100   38.9400   27.2700 C.3     1  LIG1       -0.0109
     32 C          33.4500   38.1200   28.4400 C.3     1  LIG1        0.0493
     33 O          31.9900   38.4900   28.7200 O.3     1  LIG1       -0.3796
     34 H          31.1000   37.2300   27.1800 H       1  LIG1        0.0560
     35 H          30.0700   38.6200   27.6700 H       1  LIG1        0.0560
     36 H          31.6200   40.2100   26.5200 H       1  LIG1        0.0305
     37 H          31.0700   38.9500   25.3700 H       1  LIG1        0.0305
     38 H          33.2100   37.6900   25.6700 H       1  LIG1        0.0500
     39 H          35.0700   38.6300   27.0600 H       1  LIG1        0.0305
     40 H          34.0400   40.0200   27.5400 H       1  LIG1        0.0305
     41 H          33.5200   37.0300   28.2000 H       1  LIG1        0.0560
     42 H          34.0700   38.2900   29.3600 H       1  LIG1        0.0560
     43 O          35.6600   35.1800   19.0100 O.3     1  LIG1       -0.4477
     44 C          37.2600   38.0600   16.4500 C.ar    1  LIG1        0.1264
     45 C          35.9100   37.7000   16.3500 C.ar    1  LIG1       -0.0228
     46 C          35.3700   36.7300   17.2100 C.ar    1  LIG1       -0.0137
     47 C          36.1900   36.1200   18.1700 C.ar    1  LIG1        0.1639
     48 C          37.5400   36.4800   18.2800 C.ar    1  LIG1        0.1681
     49 C          38.0800   37.4500   17.4200 C.ar    1  LIG1        0.0125
     50 F          37.7700   38.9800   15.6300 F       1  LIG1       -0.2054
     51 H          35.2700   38.1800   15.5900 H       1  LIG1        0.0647
     52 H          34.3100   36.4400   17.1200 H       1  LIG1        0.0656
     53 F          38.3100   35.9000   19.2000 F       1  LIG1       -0.2015
     54 H          39.1400   37.7300   17.5000 H       1  LIG1        0.0676
@<TRIPOS>BOND
     1     1     7   ar
     2     1     9    2
     3     1    10   ar
     4     2     8   ar
     5     2    11   ar
     6     2    12    1
     7     3     4   ar
     8     3     5   ar
     9     3     6   ar
    10     4     7   ar
    11     4    13    1
    12     5    10   ar
    13     5    11   ar
    14     6     8   ar
    15     6    14    1
    16     7    43    1
    17    10    16    1
    18    12    15    1
    19    12    30    1
    20    16    17    1
    21    16    18    1
    22    16    19    1
    23    19    20    1
    24    19    22    1
    25    19    25    1
    26    20    21    1
    27    22    23    1
    28    22    24    1
    29    22    26    1
    30    26    27    1
    31    28    29    1
    32    28    33    1
    33    28    34    1
    34    28    35    1
    35    29    30    1
    36    29    36    1
    37    29    37    1
    38    30    31    1
    39    30    38    1
    40    31    32    1
    41    31    39    1
    42    31    40    1
    43    32    33    1
    44    32    41    1
    45    32    42    1
    46    43    47    1
    47    44    45   ar
    48    44    49   ar
    49    44    50    1
    50    45    46   ar
    51    45    51    1
    52    46    47   ar
    53    46    52    1
    54    47    48   ar
    55    48    49   ar
    56    48    53    1
    57    49    54    1
