lig_p38a_2e
                    3D
 Structure written by MMmdl.
 46 49  0  0  1  0            999 V2000
   34.5500   34.9800   21.1800 C   0  0  0  0  0  0
   34.0400   38.9800   23.7400 C   0  0  0  0  0  0
   34.8000   37.8100   21.4400 C   0  0  0  0  0  0
   35.2500   37.1300   20.2300 C   0  0  0  0  0  0
   34.3100   37.0400   22.5100 C   0  0  0  0  0  0
   34.8500   39.2100   21.6200 C   0  0  0  0  0  0
   35.1700   35.7800   20.1300 C   0  0  0  0  0  0
   33.6300   34.8400   23.4300 C   0  0  0  0  0  0
   34.4800   39.7900   22.7800 N   0  0  0  0  0  0
   34.3300   33.7800   21.0200 O   0  0  0  0  0  0
   34.2100   35.6200   22.3400 N   0  0  0  0  0  0
   33.9300   37.6500   23.6600 N   0  0  0  0  0  0
   33.6700   39.5700   24.9300 N   0  0  0  0  0  0
   35.6900   37.7200   19.4400 H   0  0  0  0  0  0
   35.2200   39.8600   20.8400 H   0  0  0  0  0  0
   33.4200   35.4900   24.2800 H   0  0  0  0  0  0
   32.7000   34.3800   23.0900 H   0  0  0  0  0  0
   34.3300   34.0600   23.7300 H   0  0  0  0  0  0
   33.7300   40.5700   24.9800 H   0  0  0  0  0  0
   31.3100   38.3200   27.6400 C   0  0  0  0  0  0
   31.8000   39.1500   26.4400 C   0  0  0  0  0  0
   33.2200   38.7400   26.0300 C   0  0  0  0  0  0
   34.1900   38.8800   27.2200 C   0  0  0  0  0  0
   33.7100   38.0600   28.4200 C   0  0  0  0  0  0
   32.2800   38.4600   28.8300 O   0  0  0  0  0  0
   31.2300   37.2500   27.3500 H   0  0  0  0  0  0
   30.2900   38.6600   27.9500 H   0  0  0  0  0  0
   31.7800   40.2300   26.7000 H   0  0  0  0  0  0
   31.1000   39.0100   25.5800 H   0  0  0  0  0  0
   33.2200   37.6900   25.6700 H   0  0  0  0  0  0
   35.2200   38.5500   26.9100 H   0  0  0  0  0  0
   34.2700   39.9500   27.5100 H   0  0  0  0  0  0
   33.7300   36.9700   28.1600 H   0  0  0  0  0  0
   34.4100   38.1900   29.2800 H   0  0  0  0  0  0
   35.6600   35.1800   19.0100 O   0  0  0  0  0  0
   37.2600   38.0600   16.4500 C   0  0  0  0  0  0
   38.0800   37.4500   17.4200 C   0  0  0  0  0  0
   37.5400   36.4800   18.2800 C   0  0  0  0  0  0
   36.1900   36.1200   18.1700 C   0  0  0  0  0  0
   35.3700   36.7300   17.2100 C   0  0  0  0  0  0
   35.9100   37.7000   16.3500 C   0  0  0  0  0  0
   37.7700   38.9800   15.6300 F   0  0  0  0  0  0
   39.1400   37.7300   17.5000 H   0  0  0  0  0  0
   38.1800   36.0000   19.0400 H   0  0  0  0  0  0
   34.3100   36.4400   17.1200 H   0  0  0  0  0  0
   35.2700   38.1800   15.5900 H   0  0  0  0  0  0
  1  7  1  0  0  0
  1 10  2  0  0  0
  1 11  1  0  0  0
  2  9  1  0  0  0
  2 12  2  0  0  0
  2 13  1  0  0  0
  3  4  1  0  0  0
  3  5  2  0  0  0
  3  6  1  0  0  0
  4  7  2  0  0  0
  4 14  1  0  0  0
  5 11  1  0  0  0
  5 12  1  0  0  0
  6  9  2  0  0  0
  6 15  1  0  0  0
  7 35  1  0  0  0
  8 11  1  0  0  0
  8 16  1  0  0  0
  8 17  1  0  0  0
  8 18  1  0  0  0
 13 19  1  0  0  0
 13 22  1  0  0  0
 20 21  1  0  0  0
 20 25  1  0  0  0
 20 26  1  0  0  0
 20 27  1  0  0  0
 21 22  1  0  0  0
 21 28  1  0  0  0
 21 29  1  0  0  0
 22 23  1  0  0  0
 22 30  1  0  0  0
 23 24  1  0  0  0
 23 31  1  0  0  0
 23 32  1  0  0  0
 24 25  1  0  0  0
 24 33  1  0  0  0
 24 34  1  0  0  0
 35 39  1  0  0  0
 36 37  1  0  0  0
 36 41  2  0  0  0
 36 42  1  0  0  0
 37 38  2  0  0  0
 37 43  1  0  0  0
 38 39  1  0  0  0
 38 44  1  0  0  0
 39 40  2  0  0  0
 40 41  1  0  0  0
 40 45  1  0  0  0
 41 46  1  0  0  0
M  END
> <s_m_entry_id>
3

> <s_m_entry_name>
lig_p38a_2e.1

> <s_pdb_PDB_TITLE>
MX MODEL

> <i_pdb_PDB_Model>
1

> <r_pdb_PDB_CRYST1_a>
176.98

> <r_pdb_PDB_CRYST1_b>
135.84

> <r_pdb_PDB_CRYST1_c>
273.96

> <r_pdb_PDB_CRYST1_alpha>
90

> <r_pdb_PDB_CRYST1_beta>
90

> <r_pdb_PDB_CRYST1_gamma>
90

> <s_pdb_PDB_CRYST1_Space_Group>
P 1

> <i_pdb_PDB_CRYST1_z>
1

> <s_pdb_PDB_format_version>
3.0

> <s_m_Source_Path>
/users/home/dhahn3/projects/PLBenchmarks/PLBenchmarks/data/2019-12-09_p38/03_docked

> <s_m_Source_File>
lig_p38a_2e.pdb

> <i_m_Source_File_Index>
1

$$$$
