lig_p38a_2x
                    3D
 Structure written by MMmdl.
 43 46  0  0  1  0            999 V2000
   34.5500   34.9800   21.1800 C   0  0  0  0  0  0
   34.0400   38.9800   23.7400 C   0  0  0  0  0  0
   34.8000   37.8100   21.4400 C   0  0  0  0  0  0
   35.2500   37.1300   20.2300 C   0  0  0  0  0  0
   34.3100   37.0400   22.5100 C   0  0  0  0  0  0
   34.8500   39.2100   21.6200 C   0  0  0  0  0  0
   35.1700   35.7800   20.1300 C   0  0  0  0  0  0
   33.6700   34.8300   23.4600 C   0  0  0  0  0  0
   34.4800   39.7900   22.7800 N   0  0  0  0  0  0
   34.3300   33.7800   21.0200 O   0  0  0  0  0  0
   34.2100   35.6200   22.3400 N   0  0  0  0  0  0
   33.9300   37.6500   23.6600 N   0  0  0  0  0  0
   33.6700   39.5700   24.9300 N   0  0  0  0  0  0
   35.7000   37.7400   19.4700 H   0  0  0  0  0  0
   35.2200   39.8600   20.8400 H   0  0  0  0  0  0
   33.4200   35.4700   24.3100 H   0  0  0  0  0  0
   32.7600   34.3200   23.1500 H   0  0  0  0  0  0
   34.3600   34.0800   23.8500 H   0  0  0  0  0  0
   33.7900   40.5700   24.9700 H   0  0  0  0  0  0
   33.1500   38.7500   26.0100 C   0  0  2  0  0  0
   31.7200   39.1700   26.3800 C   0  0  0  0  0  0
   31.6400   38.8800   27.8800 C   0  0  0  0  0  0
   33.0100   39.3500   28.3900 O   0  0  0  0  0  0
   33.9800   38.8900   27.3000 C   0  0  0  0  0  0
   33.1600   37.6900   25.6600 H   0  0  0  0  0  0
   30.9400   38.6200   25.8000 H   0  0  0  0  0  0
   31.5900   40.2600   26.2100 H   0  0  0  0  0  0
   30.7900   39.4000   28.3800 H   0  0  0  0  0  0
   31.5300   37.7800   28.0600 H   0  0  0  0  0  0
   34.4200   37.8900   27.5700 H   0  0  0  0  0  0
   34.8300   39.6000   27.1800 H   0  0  0  0  0  0
   35.6600   35.1800   19.0100 O   0  0  0  0  0  0
   37.2600   38.0600   16.4500 C   0  0  0  0  0  0
   38.0600   37.4800   17.4500 C   0  0  0  0  0  0
   37.5200   36.5100   18.3100 C   0  0  0  0  0  0
   36.1900   36.1200   18.1700 C   0  0  0  0  0  0
   35.3800   36.6900   17.1700 C   0  0  0  0  0  0
   35.9200   37.6600   16.3100 C   0  0  0  0  0  0
   37.7700   38.9800   15.6300 F   0  0  0  0  0  0
   39.1200   37.8000   17.5600 H   0  0  0  0  0  0
   38.2900   35.9700   19.2600 F   0  0  0  0  0  0
   34.3300   36.3800   17.0600 H   0  0  0  0  0  0
   35.2900   38.1100   15.5300 H   0  0  0  0  0  0
  1  7  1  0  0  0
  1 10  2  0  0  0
  1 11  1  0  0  0
  2  9  1  0  0  0
  2 12  2  0  0  0
  2 13  1  0  0  0
  3  4  1  0  0  0
  3  5  2  0  0  0
  3  6  1  0  0  0
  4  7  2  0  0  0
  4 14  1  0  0  0
  5 11  1  0  0  0
  5 12  1  0  0  0
  6  9  2  0  0  0
  6 15  1  0  0  0
  7 32  1  0  0  0
  8 11  1  0  0  0
  8 16  1  0  0  0
  8 17  1  0  0  0
  8 18  1  0  0  0
 13 19  1  0  0  0
 13 20  1  0  0  0
 20 21  1  0  0  0
 20 24  1  0  0  0
 20 25  1  0  0  0
 21 22  1  0  0  0
 21 26  1  0  0  0
 21 27  1  0  0  0
 22 23  1  0  0  0
 22 28  1  0  0  0
 22 29  1  0  0  0
 23 24  1  0  0  0
 24 30  1  0  0  0
 24 31  1  0  0  0
 32 36  1  0  0  0
 33 34  1  0  0  0
 33 38  2  0  0  0
 33 39  1  0  0  0
 34 35  2  0  0  0
 34 40  1  0  0  0
 35 36  1  0  0  0
 35 41  1  0  0  0
 36 37  2  0  0  0
 37 38  1  0  0  0
 37 42  1  0  0  0
 38 43  1  0  0  0
M  END
> <s_m_entry_id>
24

> <s_m_entry_name>
lig_p38a_2x.1

> <s_pdb_PDB_TITLE>
MX MODEL

> <i_pdb_PDB_Model>
1

> <r_pdb_PDB_CRYST1_a>
166.52

> <r_pdb_PDB_CRYST1_b>
135.86

> <r_pdb_PDB_CRYST1_c>
257.2

> <r_pdb_PDB_CRYST1_alpha>
90

> <r_pdb_PDB_CRYST1_beta>
90

> <r_pdb_PDB_CRYST1_gamma>
90

> <s_pdb_PDB_CRYST1_Space_Group>
P 1

> <i_pdb_PDB_CRYST1_z>
1

> <s_pdb_PDB_format_version>
3.0

> <s_m_Source_Path>
/users/home/dhahn3/projects/PLBenchmarks/PLBenchmarks/data/2019-12-09_p38/03_docked

> <s_m_Source_File>
lig_p38a_2x.pdb

> <i_m_Source_File_Index>
1

$$$$
