lig_p38a_2i
                    3D
 Structure written by MMmdl.
 48 51  0  0  1  0            999 V2000
   38.4300   36.3900   16.6800 C   0  0  0  0  0  0
   34.5500   34.9800   21.1800 C   0  0  0  0  0  0
   37.7900   35.8500   17.8200 C   0  0  0  0  0  0
   34.0400   38.9800   23.7400 C   0  0  0  0  0  0
   34.8000   37.8100   21.4400 C   0  0  0  0  0  0
   35.2500   37.1300   20.2300 C   0  0  0  0  0  0
   37.6800   36.7500   15.5500 C   0  0  0  0  0  0
   36.2900   36.5500   15.5400 C   0  0  0  0  0  0
   35.6500   35.9900   16.6600 C   0  0  0  0  0  0
   34.3100   37.0400   22.5100 C   0  0  0  0  0  0
   34.8500   39.2100   21.6200 C   0  0  0  0  0  0
   35.1700   35.7800   20.1300 C   0  0  0  0  0  0
   36.4000   35.6600   17.8100 C   0  0  0  0  0  0
   33.6700   34.8300   23.4600 C   0  0  0  0  0  0
   38.5100   35.5500   18.9000 F   0  0  0  0  0  0
   35.6900   35.0000   18.9600 C   0  0  0  0  0  0
   34.4800   39.7900   22.7800 N   0  0  0  0  0  0
   34.3300   33.7800   21.0200 O   0  0  0  0  0  0
   34.2100   35.6200   22.3400 N   0  0  0  0  0  0
   33.9300   37.6500   23.6600 N   0  0  0  0  0  0
   33.6700   39.5700   24.9300 N   0  0  0  0  0  0
   39.5000   36.5400   16.6800 H   0  0  0  0  0  0
   35.7000   37.7400   19.4700 H   0  0  0  0  0  0
   35.7100   36.8200   14.6700 H   0  0  0  0  0  0
   34.5900   35.8100   16.6400 H   0  0  0  0  0  0
   35.2200   39.8600   20.8400 H   0  0  0  0  0  0
   33.4400   35.4700   24.3200 H   0  0  0  0  0  0
   32.7400   34.3400   23.1600 H   0  0  0  0  0  0
   34.3500   34.0600   23.8400 H   0  0  0  0  0  0
   33.7900   40.5700   24.9700 H   0  0  0  0  0  0
   38.1600   37.1900   14.6900 H   0  0  0  0  0  0
   36.4300   34.2800   19.3100 H   0  0  0  0  0  0
   34.8700   34.4700   18.4700 H   0  0  0  0  0  0
   31.1500   38.3500   27.5000 C   0  0  0  0  0  0
   31.7100   39.1700   26.3300 C   0  0  0  0  0  0
   33.1500   38.7500   26.0100 C   0  0  0  0  0  0
   34.0500   38.8900   27.2500 C   0  0  0  0  0  0
   33.4900   38.0700   28.4200 C   0  0  0  0  0  0
   32.0400   38.4900   28.7400 O   0  0  0  0  0  0
   31.0800   37.2700   27.2100 H   0  0  0  0  0  0
   30.1100   38.6900   27.7400 H   0  0  0  0  0  0
   31.6800   40.2500   26.5800 H   0  0  0  0  0  0
   31.0600   39.0300   25.4200 H   0  0  0  0  0  0
   33.1700   37.6900   25.6500 H   0  0  0  0  0  0
   35.0900   38.5500   27.0100 H   0  0  0  0  0  0
   34.1100   39.9700   27.5400 H   0  0  0  0  0  0
   33.5200   36.9900   28.1700 H   0  0  0  0  0  0
   34.1300   38.2100   29.3300 H   0  0  0  0  0  0
  1  3  1  0  0  0
  1  7  2  0  0  0
  1 22  1  0  0  0
  2 12  1  0  0  0
  2 18  2  0  0  0
  2 19  1  0  0  0
  3 13  2  0  0  0
  3 15  1  0  0  0
  4 17  1  0  0  0
  4 20  2  0  0  0
  4 21  1  0  0  0
  5  6  1  0  0  0
  5 10  2  0  0  0
  5 11  1  0  0  0
  6 12  2  0  0  0
  6 23  1  0  0  0
  7  8  1  0  0  0
  7 31  1  0  0  0
  8  9  2  0  0  0
  8 24  1  0  0  0
  9 13  1  0  0  0
  9 25  1  0  0  0
 10 19  1  0  0  0
 10 20  1  0  0  0
 11 17  2  0  0  0
 11 26  1  0  0  0
 12 16  1  0  0  0
 13 16  1  0  0  0
 14 19  1  0  0  0
 14 27  1  0  0  0
 14 28  1  0  0  0
 14 29  1  0  0  0
 16 32  1  0  0  0
 16 33  1  0  0  0
 21 30  1  0  0  0
 21 36  1  0  0  0
 34 35  1  0  0  0
 34 39  1  0  0  0
 34 40  1  0  0  0
 34 41  1  0  0  0
 35 36  1  0  0  0
 35 42  1  0  0  0
 35 43  1  0  0  0
 36 37  1  0  0  0
 36 44  1  0  0  0
 37 38  1  0  0  0
 37 45  1  0  0  0
 37 46  1  0  0  0
 38 39  1  0  0  0
 38 47  1  0  0  0
 38 48  1  0  0  0
M  END
> <s_m_entry_id>
10

> <s_m_entry_name>
lig_p38a_2i.1

> <s_pdb_PDB_TITLE>
MX MODEL

> <i_pdb_PDB_Model>
1

> <r_pdb_PDB_CRYST1_a>
187.84

> <r_pdb_PDB_CRYST1_b>
135.86

> <r_pdb_PDB_CRYST1_c>
293.16

> <r_pdb_PDB_CRYST1_alpha>
90

> <r_pdb_PDB_CRYST1_beta>
90

> <r_pdb_PDB_CRYST1_gamma>
90

> <s_pdb_PDB_CRYST1_Space_Group>
P 1

> <i_pdb_PDB_CRYST1_z>
1

> <s_pdb_PDB_format_version>
3.0

> <s_m_Source_Path>
/users/home/dhahn3/projects/PLBenchmarks/PLBenchmarks/data/2019-12-09_p38/03_docked

> <s_m_Source_File>
lig_p38a_2i.pdb

> <i_m_Source_File_Index>
1

$$$$
