@<TRIPOS>MOLECULE
lig_p38a_2u
 64 68 0 0 0
SMALL
GASTEIGER
****
Structure written by MMmdl.
@<TRIPOS>ATOM
      1 C          34.5500   34.9800   21.1800 C.ar    1  LIG1        0.2956
      2 C          34.0400   38.9800   23.7400 C.ar    1  LIG1        0.2173
      3 C          34.8000   37.8100   21.4400 C.ar    1  LIG1        0.0394
      4 C          35.2500   37.1300   20.2300 C.ar    1  LIG1       -0.0018
      5 C          34.3100   37.0400   22.5100 C.ar    1  LIG1        0.1489
      6 C          34.8500   39.2100   21.6200 C.ar    1  LIG1        0.0419
      7 C          35.1700   35.7800   20.1300 C.ar    1  LIG1        0.1935
      8 N          34.4800   39.7900   22.7800 N.ar    1  LIG1       -0.2222
      9 O          34.3300   33.7800   21.0200 O.2     1  LIG1       -0.2636
     10 N          34.2100   35.6200   22.3400 N.ar    1  LIG1       -0.2865
     11 N          33.9300   37.6500   23.6600 N.ar    1  LIG1       -0.1964
     12 N          33.6700   39.5700   24.9300 N.pl3   1  LIG1       -0.3104
     13 H          35.7000   37.7400   19.4700 H       1  LIG1        0.0664
     14 H          35.2200   39.8600   20.8400 H       1  LIG1        0.0838
     15 H          33.7900   40.5700   24.9700 H       1  LIG1        0.1492
     16 C          31.1000   38.2400   27.4000 C.3     1  LIG1        0.0493
     17 C          31.6600   39.0600   26.2300 C.3     1  LIG1       -0.0109
     18 C          33.1500   38.7500   26.0100 C.3     1  LIG1        0.0275
     19 C          33.9600   39.0000   27.2900 C.3     1  LIG1       -0.0109
     20 C          33.3900   38.1900   28.4600 C.3     1  LIG1        0.0493
     21 O          31.9000   38.5000   28.6800 O.3     1  LIG1       -0.3796
     22 H          31.1300   37.1600   27.1500 H       1  LIG1        0.0560
     23 H          30.0200   38.5100   27.5700 H       1  LIG1        0.0560
     24 H          31.5300   40.1500   26.4300 H       1  LIG1        0.0305
     25 H          31.0800   38.8400   25.2900 H       1  LIG1        0.0305
     26 H          33.2700   37.6900   25.7000 H       1  LIG1        0.0500
     27 H          35.0300   38.7400   27.1200 H       1  LIG1        0.0305
     28 H          33.9200   40.0900   27.5400 H       1  LIG1        0.0305
     29 H          33.5200   37.1000   28.2500 H       1  LIG1        0.0560
     30 H          33.9700   38.4100   29.4000 H       1  LIG1        0.0560
     31 O          35.6600   35.1800   19.0100 O.3     1  LIG1       -0.4477
     32 C          37.2600   38.0600   16.4500 C.ar    1  LIG1        0.1264
     33 C          38.0700   37.4700   17.4400 C.ar    1  LIG1        0.0125
     34 C          37.5300   36.5000   18.3000 C.ar    1  LIG1        0.1681
     35 C          36.1900   36.1200   18.1700 C.ar    1  LIG1        0.1639
     36 C          35.3800   36.7000   17.1800 C.ar    1  LIG1       -0.0137
     37 C          35.9200   37.6700   16.3200 C.ar    1  LIG1       -0.0228
     38 F          37.7700   38.9800   15.6300 F       1  LIG1       -0.2054
     39 H          39.1200   37.7800   17.5500 H       1  LIG1        0.0676
     40 F          38.2900   35.9500   19.2500 F       1  LIG1       -0.2015
     41 H          34.3200   36.4000   17.0800 H       1  LIG1        0.0656
     42 H          35.2800   38.1300   15.5400 H       1  LIG1        0.0647
     43 C          32.9700   35.0100   25.8900 C.3     1  LIG1        0.0220
     44 C          33.4300   35.8000   24.6500 C.3     1  LIG1       -0.0174
     45 C          33.7300   34.8600   23.4800 C.3     1  LIG1        0.0418
     46 C          34.7800   33.8000   23.8800 C.3     1  LIG1       -0.0174
     47 C          34.3200   33.0100   25.1200 C.3     1  LIG1        0.0220
     48 N          34.0100   33.9600   26.2900 N.3     1  LIG1       -0.1812
     49 H          32.0000   34.5100   25.6700 H       1  LIG1        0.0444
     50 H          32.7800   35.7100   26.7400 H       1  LIG1        0.0444
     51 H          34.3500   36.3900   24.9100 H       1  LIG1        0.0298
     52 H          32.6500   36.5400   24.3500 H       1  LIG1        0.0298
     53 H          32.8000   34.3500   23.1600 H       1  LIG1        0.0530
     54 H          34.9600   33.1000   23.0300 H       1  LIG1        0.0298
     55 H          35.7500   34.3100   24.1000 H       1  LIG1        0.0298
     56 H          33.4000   32.4300   24.8600 H       1  LIG1        0.0444
     57 H          35.1000   32.2800   25.4100 H       1  LIG1        0.0444
     58 S          33.3900   33.0200   27.6500 S.O2    1  LIG1        0.0290
     59 O          32.9900   33.9600   28.7200 O.2     1  LIG1       -0.1583
     60 C          31.9300   32.1500   27.1000 C.3     1  LIG1        0.0707
     61 O          34.4100   32.0100   28.0200 O.2     1  LIG1       -0.1583
     62 H          32.2000   31.4400   26.3100 H       1  LIG1        0.0479
     63 H          31.4900   31.6000   27.9300 H       1  LIG1        0.0479
     64 H          31.2000   32.8600   26.7100 H       1  LIG1        0.0479
@<TRIPOS>BOND
     1     1     7   ar
     2     1     9    2
     3     1    10   ar
     4     2     8   ar
     5     2    11   ar
     6     2    12    1
     7     3     4   ar
     8     3     5   ar
     9     3     6   ar
    10     4     7   ar
    11     4    13    1
    12     5    10   ar
    13     5    11   ar
    14     6     8   ar
    15     6    14    1
    16     7    31    1
    17    10    45    1
    18    12    15    1
    19    12    18    1
    20    16    17    1
    21    16    21    1
    22    16    22    1
    23    16    23    1
    24    17    18    1
    25    17    24    1
    26    17    25    1
    27    18    19    1
    28    18    26    1
    29    19    20    1
    30    19    27    1
    31    19    28    1
    32    20    21    1
    33    20    29    1
    34    20    30    1
    35    31    35    1
    36    32    33   ar
    37    32    37   ar
    38    32    38    1
    39    33    34   ar
    40    33    39    1
    41    34    35   ar
    42    34    40    1
    43    35    36   ar
    44    36    37   ar
    45    36    41    1
    46    37    42    1
    47    43    44    1
    48    43    48    1
    49    43    49    1
    50    43    50    1
    51    44    45    1
    52    44    51    1
    53    44    52    1
    54    45    46    1
    55    45    53    1
    56    46    47    1
    57    46    54    1
    58    46    55    1
    59    47    48    1
    60    47    56    1
    61    47    57    1
    62    48    58    1
    63    58    59    2
    64    58    60    1
    65    58    61    2
    66    60    62    1
    67    60    63    1
    68    60    64    1
