lig_p38a_2l
                    3D
 Structure written by MMmdl.
 49 52  0  0  1  0            999 V2000
   34.5500   34.9800   21.1800 C   0  0  0  0  0  0
   34.0400   38.9800   23.7400 C   0  0  0  0  0  0
   34.8000   37.8100   21.4400 C   0  0  0  0  0  0
   35.2500   37.1300   20.2300 C   0  0  0  0  0  0
   34.3100   37.0400   22.5100 C   0  0  0  0  0  0
   34.8500   39.2100   21.6200 C   0  0  0  0  0  0
   35.1700   35.7800   20.1300 C   0  0  0  0  0  0
   34.4800   39.7900   22.7800 N   0  0  0  0  0  0
   34.3300   33.7800   21.0200 O   0  0  0  0  0  0
   34.2100   35.6200   22.3400 N   0  0  0  0  0  0
   33.9300   37.6500   23.6600 N   0  0  0  0  0  0
   33.6700   39.5700   24.9300 N   0  0  0  0  0  0
   35.7000   37.7400   19.4700 H   0  0  0  0  0  0
   35.2200   39.8600   20.8400 H   0  0  0  0  0  0
   33.7900   40.5700   24.9700 H   0  0  0  0  0  0
   33.6800   34.8400   23.4400 C   0  0  0  0  0  0
   33.4600   35.5200   24.3100 H   0  0  0  0  0  0
   32.7300   34.3400   23.1200 H   0  0  0  0  0  0
   34.7000   33.7900   23.8700 C   0  0  0  0  0  0
   34.9100   33.1100   23.0100 H   0  0  0  0  0  0
   35.6400   34.3000   24.1900 H   0  0  0  0  0  0
   34.2800   33.1900   24.7200 H   0  0  0  0  0  0
   31.1300   38.3300   27.4800 C   0  0  0  0  0  0
   31.7000   39.1500   26.3100 C   0  0  0  0  0  0
   33.1500   38.7500   26.0100 C   0  0  0  0  0  0
   34.0300   38.9100   27.2600 C   0  0  0  0  0  0
   33.4700   38.1000   28.4300 C   0  0  0  0  0  0
   32.0100   38.4900   28.7300 O   0  0  0  0  0  0
   31.0900   37.2500   27.2000 H   0  0  0  0  0  0
   30.0900   38.6500   27.7100 H   0  0  0  0  0  0
   31.6500   40.2300   26.5500 H   0  0  0  0  0  0
   31.0600   38.9900   25.4000 H   0  0  0  0  0  0
   33.1900   37.6900   25.6600 H   0  0  0  0  0  0
   35.0800   38.5900   27.0300 H   0  0  0  0  0  0
   34.0800   39.9900   27.5400 H   0  0  0  0  0  0
   33.5200   37.0100   28.1900 H   0  0  0  0  0  0
   34.1000   38.2500   29.3400 H   0  0  0  0  0  0
   35.6600   35.1800   19.0100 O   0  0  0  0  0  0
   37.2600   38.0600   16.4500 C   0  0  0  0  0  0
   38.0700   37.4600   17.4300 C   0  0  0  0  0  0
   37.5300   36.4900   18.2900 C   0  0  0  0  0  0
   36.1900   36.1200   18.1700 C   0  0  0  0  0  0
   35.3700   36.7200   17.2000 C   0  0  0  0  0  0
   35.9100   37.6900   16.3400 C   0  0  0  0  0  0
   37.7700   38.9800   15.6300 F   0  0  0  0  0  0
   39.1300   37.7500   17.5200 H   0  0  0  0  0  0
   38.3100   35.9200   19.2100 F   0  0  0  0  0  0
   34.3100   36.4300   17.1100 H   0  0  0  0  0  0
   35.2700   38.1600   15.5700 H   0  0  0  0  0  0
  1  7  1  0  0  0
  1  9  2  0  0  0
  1 10  1  0  0  0
  2  8  1  0  0  0
  2 11  2  0  0  0
  2 12  1  0  0  0
  3  4  1  0  0  0
  3  5  2  0  0  0
  3  6  1  0  0  0
  4  7  2  0  0  0
  4 13  1  0  0  0
  5 10  1  0  0  0
  5 11  1  0  0  0
  6  8  2  0  0  0
  6 14  1  0  0  0
  7 38  1  0  0  0
 10 16  1  0  0  0
 12 15  1  0  0  0
 12 25  1  0  0  0
 16 17  1  0  0  0
 16 18  1  0  0  0
 16 19  1  0  0  0
 19 20  1  0  0  0
 19 21  1  0  0  0
 19 22  1  0  0  0
 23 24  1  0  0  0
 23 28  1  0  0  0
 23 29  1  0  0  0
 23 30  1  0  0  0
 24 25  1  0  0  0
 24 31  1  0  0  0
 24 32  1  0  0  0
 25 26  1  0  0  0
 25 33  1  0  0  0
 26 27  1  0  0  0
 26 34  1  0  0  0
 26 35  1  0  0  0
 27 28  1  0  0  0
 27 36  1  0  0  0
 27 37  1  0  0  0
 38 42  1  0  0  0
 39 40  1  0  0  0
 39 44  2  0  0  0
 39 45  1  0  0  0
 40 41  2  0  0  0
 40 46  1  0  0  0
 41 42  1  0  0  0
 41 47  1  0  0  0
 42 43  2  0  0  0
 43 44  1  0  0  0
 43 48  1  0  0  0
 44 49  1  0  0  0
M  END
> <s_m_entry_id>
13

> <s_m_entry_name>
lig_p38a_2l.1

> <s_pdb_PDB_TITLE>
MX MODEL

> <i_pdb_PDB_Model>
1

> <r_pdb_PDB_CRYST1_a>
180.9

> <r_pdb_PDB_CRYST1_b>
149.14

> <r_pdb_PDB_CRYST1_c>
275.42

> <r_pdb_PDB_CRYST1_alpha>
90

> <r_pdb_PDB_CRYST1_beta>
90

> <r_pdb_PDB_CRYST1_gamma>
90

> <s_pdb_PDB_CRYST1_Space_Group>
P 1

> <i_pdb_PDB_CRYST1_z>
1

> <s_pdb_PDB_format_version>
3.0

> <s_m_Source_Path>
/users/home/dhahn3/projects/PLBenchmarks/PLBenchmarks/data/2019-12-09_p38/03_docked

> <s_m_Source_File>
lig_p38a_2l.pdb

> <i_m_Source_File_Index>
1

$$$$
