@<TRIPOS>MOLECULE
lig_p38a_2bb
 44 46 0 0 0
SMALL
GASTEIGER
****
Structure written by MMmdl.
@<TRIPOS>ATOM
      1 C          34.5500   34.9800   21.1800 C.ar    1  LIG1        0.2951
      2 C          34.0400   38.9800   23.7400 C.ar    1  LIG1        0.2171
      3 C          34.8000   37.8100   21.4400 C.ar    1  LIG1        0.0394
      4 C          35.2500   37.1300   20.2300 C.ar    1  LIG1       -0.0018
      5 C          34.3100   37.0400   22.5100 C.ar    1  LIG1        0.1484
      6 C          34.8500   39.2100   21.6200 C.ar    1  LIG1        0.0419
      7 C          35.1700   35.7800   20.1300 C.ar    1  LIG1        0.1934
      8 C          33.6700   34.8300   23.4600 C.3     1  LIG1        0.0168
      9 N          34.4800   39.7900   22.7800 N.ar    1  LIG1       -0.2222
     10 O          34.3300   33.7800   21.0200 O.2     1  LIG1       -0.2636
     11 N          34.2100   35.6200   22.3400 N.ar    1  LIG1       -0.2928
     12 N          33.9300   37.6500   23.6600 N.ar    1  LIG1       -0.1964
     13 N          33.6700   39.5700   24.9300 N.pl3   1  LIG1       -0.3119
     14 H          35.7000   37.7400   19.4700 H       1  LIG1        0.0664
     15 H          35.2200   39.8600   20.8400 H       1  LIG1        0.0838
     16 H          33.3200   35.4800   24.2700 H       1  LIG1        0.0457
     17 H          32.8300   34.2300   23.1200 H       1  LIG1        0.0457
     18 H          34.3900   34.1600   23.9300 H       1  LIG1        0.0457
     19 H          33.7900   40.5700   24.9700 H       1  LIG1        0.1490
     20 C          33.1200   38.7100   26.0600 C.3     1  LIG1        0.0311
     21 H          32.0900   38.9900   26.2600 H       1  LIG1        0.0478
     22 H          33.1700   37.6600   25.7800 H       1  LIG1        0.0478
     23 C          33.9700   38.9400   27.3300 C.3     1  LIG1        0.0809
     24 H          35.0000   38.6600   27.1300 H       1  LIG1        0.0515
     25 H          33.9200   39.9900   27.6100 H       1  LIG1        0.0515
     26 S          33.3200   37.9400   28.6600 S.O2    1  LIG1       -0.0323
     27 O          34.1600   38.1800   29.8600 O.2     1  LIG1       -0.1746
     28 C          31.6600   38.4900   29.0100 C.3     1  LIG1        0.0545
     29 O          33.2600   36.5300   28.1900 O.2     1  LIG1       -0.1746
     30 H          31.0300   38.3200   28.1400 H       1  LIG1        0.0464
     31 H          31.2600   37.9300   29.8600 H       1  LIG1        0.0464
     32 H          31.6700   39.5500   29.2500 H       1  LIG1        0.0464
     33 O          35.6600   35.1800   19.0100 O.3     1  LIG1       -0.4477
     34 C          37.2600   38.0600   16.4500 C.ar    1  LIG1        0.1264
     35 C          38.0700   37.4700   17.4400 C.ar    1  LIG1        0.0125
     36 C          37.5300   36.5000   18.3000 C.ar    1  LIG1        0.1681
     37 C          36.1900   36.1200   18.1700 C.ar    1  LIG1        0.1639
     38 C          35.3800   36.7000   17.1800 C.ar    1  LIG1       -0.0137
     39 C          35.9200   37.6700   16.3200 C.ar    1  LIG1       -0.0228
     40 F          37.7700   38.9800   15.6300 F       1  LIG1       -0.2054
     41 H          39.1200   37.7800   17.5500 H       1  LIG1        0.0676
     42 F          38.2900   35.9500   19.2500 F       1  LIG1       -0.2015
     43 H          34.3200   36.4000   17.0800 H       1  LIG1        0.0656
     44 H          35.2800   38.1300   15.5400 H       1  LIG1        0.0647
@<TRIPOS>BOND
     1     1     7   ar
     2     1    10    2
     3     1    11   ar
     4     2     9   ar
     5     2    12   ar
     6     2    13    1
     7     3     4   ar
     8     3     5   ar
     9     3     6   ar
    10     4     7   ar
    11     4    14    1
    12     5    11   ar
    13     5    12   ar
    14     6     9   ar
    15     6    15    1
    16     7    33    1
    17     8    11    1
    18     8    16    1
    19     8    17    1
    20     8    18    1
    21    13    19    1
    22    13    20    1
    23    20    21    1
    24    20    22    1
    25    20    23    1
    26    23    24    1
    27    23    25    1
    28    23    26    1
    29    26    27    2
    30    26    28    1
    31    26    29    2
    32    28    30    1
    33    28    31    1
    34    28    32    1
    35    33    37    1
    36    34    35   ar
    37    34    39   ar
    38    34    40    1
    39    35    36   ar
    40    35    41    1
    41    36    37   ar
    42    36    42    1
    43    37    38   ar
    44    38    39   ar
    45    38    43    1
    46    39    44    1
