@<TRIPOS>MOLECULE
lig_p38a_2m
 50 54 0 0 0
SMALL
GASTEIGER
****
Structure written by MMmdl.
@<TRIPOS>ATOM
      1 C          34.5500   34.9800   21.1800 C.ar    1  LIG1        0.2956
      2 C          34.0400   38.9800   23.7400 C.ar    1  LIG1        0.2173
      3 C          34.8000   37.8100   21.4400 C.ar    1  LIG1        0.0394
      4 C          35.2500   37.1300   20.2300 C.ar    1  LIG1       -0.0018
      5 C          34.3100   37.0400   22.5100 C.ar    1  LIG1        0.1489
      6 C          34.8500   39.2100   21.6200 C.ar    1  LIG1        0.0419
      7 C          35.1700   35.7800   20.1300 C.ar    1  LIG1        0.1935
      8 N          34.4800   39.7900   22.7800 N.ar    1  LIG1       -0.2222
      9 O          34.3300   33.7800   21.0200 O.2     1  LIG1       -0.2636
     10 N          34.2100   35.6200   22.3400 N.ar    1  LIG1       -0.2866
     11 N          33.9300   37.6500   23.6600 N.ar    1  LIG1       -0.1964
     12 N          33.6700   39.5700   24.9300 N.pl3   1  LIG1       -0.3104
     13 H          35.7000   37.7400   19.4700 H       1  LIG1        0.0664
     14 H          35.2200   39.8600   20.8400 H       1  LIG1        0.0838
     15 H          33.7900   40.5700   24.9700 H       1  LIG1        0.1492
     16 C          33.6800   34.8400   23.4400 C.3     1  LIG1        0.0395
     17 C          34.1500   33.4200   23.5400 C.3     1  LIG1       -0.0301
     18 C          32.7500   33.7200   23.0700 C.3     1  LIG1       -0.0301
     19 H          33.4600   35.3500   24.4100 H       1  LIG1        0.0529
     20 H          34.8700   33.0900   22.7500 H       1  LIG1        0.0286
     21 H          34.2400   33.0000   24.5700 H       1  LIG1        0.0286
     22 H          32.5600   33.5900   21.9800 H       1  LIG1        0.0286
     23 H          31.9300   33.5000   23.8000 H       1  LIG1        0.0286
     24 C          31.1300   38.3200   27.4700 C.3     1  LIG1        0.0493
     25 C          31.6900   39.1300   26.3000 C.3     1  LIG1       -0.0109
     26 C          33.1500   38.7500   26.0100 C.3     1  LIG1        0.0275
     27 C          34.0200   38.9200   27.2600 C.3     1  LIG1       -0.0109
     28 C          33.4600   38.1100   28.4400 C.3     1  LIG1        0.0493
     29 O          32.0000   38.4900   28.7300 O.3     1  LIG1       -0.3796
     30 H          31.0900   37.2400   27.1900 H       1  LIG1        0.0560
     31 H          30.0800   38.6300   27.6900 H       1  LIG1        0.0560
     32 H          31.6300   40.2200   26.5400 H       1  LIG1        0.0305
     33 H          31.0700   38.9700   25.3800 H       1  LIG1        0.0305
     34 H          33.2000   37.6900   25.6700 H       1  LIG1        0.0500
     35 H          35.0700   38.6100   27.0400 H       1  LIG1        0.0305
     36 H          34.0600   40.0000   27.5400 H       1  LIG1        0.0305
     37 H          33.5200   37.0200   28.1900 H       1  LIG1        0.0560
     38 H          34.0900   38.2700   29.3500 H       1  LIG1        0.0560
     39 O          35.6600   35.1800   19.0100 O.3     1  LIG1       -0.4477
     40 C          37.2600   38.0600   16.4500 C.ar    1  LIG1        0.1264
     41 C          38.0700   37.4700   17.4400 C.ar    1  LIG1        0.0125
     42 C          37.5300   36.4900   18.3000 C.ar    1  LIG1        0.1681
     43 C          36.1900   36.1200   18.1700 C.ar    1  LIG1        0.1639
     44 C          35.3800   36.7100   17.1900 C.ar    1  LIG1       -0.0137
     45 C          35.9100   37.6800   16.3300 C.ar    1  LIG1       -0.0228
     46 F          37.7700   38.9800   15.6300 F       1  LIG1       -0.2054
     47 H          39.1300   37.7600   17.5300 H       1  LIG1        0.0676
     48 F          38.3000   35.9300   19.2300 F       1  LIG1       -0.2015
     49 H          34.3200   36.4100   17.0900 H       1  LIG1        0.0656
     50 H          35.2800   38.1400   15.5600 H       1  LIG1        0.0647
@<TRIPOS>BOND
     1     1     7   ar
     2     1     9    2
     3     1    10   ar
     4     2     8   ar
     5     2    11   ar
     6     2    12    1
     7     3     4   ar
     8     3     5   ar
     9     3     6   ar
    10     4     7   ar
    11     4    13    1
    12     5    10   ar
    13     5    11   ar
    14     6     8   ar
    15     6    14    1
    16     7    39    1
    17    10    16    1
    18    12    15    1
    19    12    26    1
    20    16    17    1
    21    16    18    1
    22    16    19    1
    23    17    18    1
    24    17    20    1
    25    17    21    1
    26    18    22    1
    27    18    23    1
    28    24    25    1
    29    24    29    1
    30    24    30    1
    31    24    31    1
    32    25    26    1
    33    25    32    1
    34    25    33    1
    35    26    27    1
    36    26    34    1
    37    27    28    1
    38    27    35    1
    39    27    36    1
    40    28    29    1
    41    28    37    1
    42    28    38    1
    43    39    43    1
    44    40    41   ar
    45    40    45   ar
    46    40    46    1
    47    41    42   ar
    48    41    47    1
    49    42    43   ar
    50    42    48    1
    51    43    44   ar
    52    44    45   ar
    53    44    49    1
    54    45    50    1
