@<TRIPOS>MOLECULE
lig_p38a_3flw
 49 51 0 0 0
SMALL
GASTEIGER
****
Structure written by MMmdl.
@<TRIPOS>ATOM
      1 C          33.7500   34.7800   23.4700 C.3     1  LIG1        0.0168
      2 C          35.1700   35.7800   20.1300 C.ar    1  LIG1        0.1934
      3 C          35.2500   37.1300   20.2300 C.ar    1  LIG1       -0.0018
      4 C          34.8000   37.8100   21.4400 C.ar    1  LIG1        0.0394
      5 C          34.8500   39.2100   21.6200 C.ar    1  LIG1        0.0419
      6 N          34.4800   39.7900   22.7800 N.ar    1  LIG1       -0.2222
      7 C          34.5500   34.9800   21.1800 C.ar    1  LIG1        0.2951
      8 O          34.3300   33.7800   21.0200 O.2     1  LIG1       -0.2636
      9 N          34.2100   35.6200   22.3400 N.ar    1  LIG1       -0.2928
     10 C          34.3100   37.0400   22.5100 C.ar    1  LIG1        0.1484
     11 N          33.9300   37.6500   23.6600 N.ar    1  LIG1       -0.1964
     12 C          34.0400   38.9800   23.7400 C.ar    1  LIG1        0.2173
     13 N          33.6700   39.5700   24.9300 N.pl3   1  LIG1       -0.3104
     14 H          33.3800   35.3500   24.3200 H       1  LIG1        0.0457
     15 H          32.9300   34.1300   23.1600 H       1  LIG1        0.0457
     16 H          34.5700   34.1600   23.8300 H       1  LIG1        0.0457
     17 H          35.7100   37.7300   19.4700 H       1  LIG1        0.0664
     18 H          35.2300   39.8600   20.8400 H       1  LIG1        0.0838
     19 H          33.8200   40.5600   24.9800 H       1  LIG1        0.1492
     20 C          33.0800   38.7200   26.0400 C.3     1  LIG1        0.0275
     21 C          33.9700   38.8300   27.3000 C.3     1  LIG1       -0.0111
     22 C          31.6600   39.2200   26.3700 C.3     1  LIG1       -0.0111
     23 H          33.0300   37.6800   25.7200 H       1  LIG1        0.0500
     24 H          33.5400   38.2200   28.0900 H       1  LIG1        0.0305
     25 C          35.3800   38.3200   26.9700 C.3     1  LIG1        0.0459
     26 H          34.0200   39.8700   27.6200 H       1  LIG1        0.0305
     27 H          31.2400   38.6200   27.1700 H       1  LIG1        0.0305
     28 H          31.7100   40.2600   26.7000 H       1  LIG1        0.0305
     29 C          30.7700   39.1200   25.1200 C.3     1  LIG1        0.0459
     30 H          29.7700   39.4800   25.3600 H       1  LIG1        0.0558
     31 H          31.2000   39.7300   24.3200 H       1  LIG1        0.0558
     32 O          30.7100   37.7700   24.7000 O.3     1  LIG1       -0.3949
     33 O          36.3400   39.0900   27.6600 O.3     1  LIG1       -0.3949
     34 H          35.4800   37.2700   27.2600 H       1  LIG1        0.0558
     35 H          35.5600   38.4100   25.8900 H       1  LIG1        0.0558
     36 H          36.8800   39.5800   27.0400 H       1  LIG1        0.2094
     37 H          31.5900   37.4000   24.7000 H       1  LIG1        0.2094
     38 O          35.6600   35.1500   19.0200 O.3     1  LIG1       -0.4477
     39 C          37.3100   37.9800   16.4300 C.ar    1  LIG1        0.1264
     40 C          38.1000   37.4000   17.4300 C.ar    1  LIG1        0.0125
     41 C          37.5500   36.4400   18.3000 C.ar    1  LIG1        0.1681
     42 C          36.2000   36.0800   18.1700 C.ar    1  LIG1        0.1639
     43 C          35.4000   36.6600   17.1700 C.ar    1  LIG1       -0.0137
     44 C          35.9600   37.6100   16.3000 C.ar    1  LIG1       -0.0228
     45 F          37.8400   38.8800   15.6100 F       1  LIG1       -0.2054
     46 H          39.1600   37.6800   17.5400 H       1  LIG1        0.0676
     47 F          38.3000   35.8900   19.2500 F       1  LIG1       -0.2015
     48 H          34.3400   36.3700   17.0700 H       1  LIG1        0.0656
     49 H          35.3400   38.0700   15.5100 H       1  LIG1        0.0647
@<TRIPOS>BOND
     1     1     9    1
     2     1    14    1
     3     1    15    1
     4     1    16    1
     5     2     3   ar
     6     2     7   ar
     7     2    38    1
     8     3     4   ar
     9     3    17    1
    10     4     5   ar
    11     4    10   ar
    12     5     6   ar
    13     5    18    1
    14     6    12   ar
    15     7     8    2
    16     7     9   ar
    17     9    10   ar
    18    10    11   ar
    19    11    12   ar
    20    12    13    1
    21    13    19    1
    22    13    20    1
    23    20    21    1
    24    20    22    1
    25    20    23    1
    26    21    24    1
    27    21    25    1
    28    21    26    1
    29    22    27    1
    30    22    28    1
    31    22    29    1
    32    25    33    1
    33    25    34    1
    34    25    35    1
    35    29    30    1
    36    29    31    1
    37    29    32    1
    38    32    37    1
    39    33    36    1
    40    38    42    1
    41    39    40   ar
    42    39    44   ar
    43    39    45    1
    44    40    41   ar
    45    40    46    1
    46    41    42   ar
    47    41    47    1
    48    42    43   ar
    49    43    44   ar
    50    43    48    1
    51    44    49    1
