lig_p38a_2r
                    3D
 Structure written by MMmdl.
 56 59  0  0  1  0            999 V2000
   34.5500   34.9800   21.1800 C   0  0  0  0  0  0
   34.0400   38.9800   23.7400 C   0  0  0  0  0  0
   34.8000   37.8100   21.4400 C   0  0  0  0  0  0
   35.2500   37.1300   20.2300 C   0  0  0  0  0  0
   34.3100   37.0400   22.5100 C   0  0  0  0  0  0
   34.8500   39.2100   21.6200 C   0  0  0  0  0  0
   35.1700   35.7800   20.1300 C   0  0  0  0  0  0
   34.4800   39.7900   22.7800 N   0  0  0  0  0  0
   34.3300   33.7800   21.0200 O   0  0  0  0  0  0
   34.2100   35.6200   22.3400 N   0  0  0  0  0  0
   33.9300   37.6500   23.6600 N   0  0  0  0  0  0
   33.6700   39.5700   24.9300 N   0  0  0  0  0  0
   35.7000   37.7400   19.4700 H   0  0  0  0  0  0
   35.2200   39.8600   20.8400 H   0  0  0  0  0  0
   33.7900   40.5700   24.9700 H   0  0  0  0  0  0
   33.6800   34.8400   23.4400 C   0  0  0  0  0  0
   33.4600   35.5200   24.3100 H   0  0  0  0  0  0
   32.7300   34.3400   23.1200 H   0  0  0  0  0  0
   34.7000   33.7900   23.8700 C   0  0  0  0  0  0
   34.9700   32.9400   22.7800 O   0  0  0  0  0  0
   34.1300   32.5300   22.5500 H   0  0  0  0  0  0
   34.1300   32.9800   25.0300 C   0  0  0  0  0  0
   33.1200   32.5900   24.7600 H   0  0  0  0  0  0
   34.8200   32.1200   25.2500 H   0  0  0  0  0  0
   34.0500   33.6300   25.9400 H   0  0  0  0  0  0
   35.9900   34.4800   24.3100 C   0  0  0  0  0  0
   36.7400   33.7100   24.6200 H   0  0  0  0  0  0
   36.4000   35.0800   23.4600 H   0  0  0  0  0  0
   35.7700   35.1600   25.1700 H   0  0  0  0  0  0
   31.1400   38.3400   27.4900 C   0  0  0  0  0  0
   31.7000   39.1600   26.3200 C   0  0  0  0  0  0
   33.1500   38.7500   26.0100 C   0  0  0  0  0  0
   34.0400   38.9000   27.2500 C   0  0  0  0  0  0
   33.4800   38.0800   28.4300 C   0  0  0  0  0  0
   32.0300   38.4900   28.7400 O   0  0  0  0  0  0
   31.0800   37.2600   27.2000 H   0  0  0  0  0  0
   30.1000   38.6700   27.7200 H   0  0  0  0  0  0
   31.6600   40.2400   26.5700 H   0  0  0  0  0  0
   31.0600   39.0100   25.4100 H   0  0  0  0  0  0
   33.1700   37.6900   25.6600 H   0  0  0  0  0  0
   35.0800   38.5700   27.0200 H   0  0  0  0  0  0
   34.1000   39.9800   27.5400 H   0  0  0  0  0  0
   33.5200   37.0000   28.1800 H   0  0  0  0  0  0
   34.1200   38.2300   29.3300 H   0  0  0  0  0  0
   35.6600   35.1800   19.0100 O   0  0  0  0  0  0
   37.2600   38.0600   16.4500 C   0  0  0  0  0  0
   38.0600   37.4900   17.4600 C   0  0  0  0  0  0
   37.5200   36.5200   18.3200 C   0  0  0  0  0  0
   36.1900   36.1200   18.1700 C   0  0  0  0  0  0
   35.3900   36.6800   17.1600 C   0  0  0  0  0  0
   35.9200   37.6500   16.3000 C   0  0  0  0  0  0
   37.7700   38.9800   15.6300 F   0  0  0  0  0  0
   39.1100   37.8100   17.5800 H   0  0  0  0  0  0
   38.2800   35.9900   19.2800 F   0  0  0  0  0  0
   34.3400   36.3600   17.0500 H   0  0  0  0  0  0
   35.3000   38.0900   15.5100 H   0  0  0  0  0  0
  1  7  1  0  0  0
  1  9  2  0  0  0
  1 10  1  0  0  0
  2  8  1  0  0  0
  2 11  2  0  0  0
  2 12  1  0  0  0
  3  4  1  0  0  0
  3  5  2  0  0  0
  3  6  1  0  0  0
  4  7  2  0  0  0
  4 13  1  0  0  0
  5 10  1  0  0  0
  5 11  1  0  0  0
  6  8  2  0  0  0
  6 14  1  0  0  0
  7 45  1  0  0  0
 10 16  1  0  0  0
 12 15  1  0  0  0
 12 32  1  0  0  0
 16 17  1  0  0  0
 16 18  1  0  0  0
 16 19  1  0  0  0
 19 20  1  0  0  0
 19 22  1  0  0  0
 19 26  1  0  0  0
 20 21  1  0  0  0
 22 23  1  0  0  0
 22 24  1  0  0  0
 22 25  1  0  0  0
 26 27  1  0  0  0
 26 28  1  0  0  0
 26 29  1  0  0  0
 30 31  1  0  0  0
 30 35  1  0  0  0
 30 36  1  0  0  0
 30 37  1  0  0  0
 31 32  1  0  0  0
 31 38  1  0  0  0
 31 39  1  0  0  0
 32 33  1  0  0  0
 32 40  1  0  0  0
 33 34  1  0  0  0
 33 41  1  0  0  0
 33 42  1  0  0  0
 34 35  1  0  0  0
 34 43  1  0  0  0
 34 44  1  0  0  0
 45 49  1  0  0  0
 46 47  1  0  0  0
 46 51  2  0  0  0
 46 52  1  0  0  0
 47 48  2  0  0  0
 47 53  1  0  0  0
 48 49  1  0  0  0
 48 54  1  0  0  0
 49 50  2  0  0  0
 50 51  1  0  0  0
 50 55  1  0  0  0
 51 56  1  0  0  0
M  END
> <s_m_entry_id>
19

> <s_m_entry_name>
lig_p38a_2r.1

> <s_pdb_PDB_TITLE>
MX MODEL

> <i_pdb_PDB_Model>
1

> <r_pdb_PDB_CRYST1_a>
180.24

> <r_pdb_PDB_CRYST1_b>
169.02

> <r_pdb_PDB_CRYST1_c>
276.46

> <r_pdb_PDB_CRYST1_alpha>
90

> <r_pdb_PDB_CRYST1_beta>
90

> <r_pdb_PDB_CRYST1_gamma>
90

> <s_pdb_PDB_CRYST1_Space_Group>
P 1

> <i_pdb_PDB_CRYST1_z>
1

> <s_pdb_PDB_format_version>
3.0

> <s_m_Source_Path>
/users/home/dhahn3/projects/PLBenchmarks/PLBenchmarks/data/2019-12-09_p38/03_docked

> <s_m_Source_File>
lig_p38a_2r.pdb

> <i_m_Source_File_Index>
1

$$$$
