lig_p38a_3fmh
                    3D
 Structure written by MMmdl.
 46 49  0  0  1  0            999 V2000
   35.1700   35.7800   20.1300 C   0  0  0  0  0  0
   34.5500   34.9800   21.1800 C   0  0  0  0  0  0
   34.3300   33.7800   21.0200 O   0  0  0  0  0  0
   34.2100   35.6200   22.3400 N   0  0  0  0  0  0
   33.7000   34.8300   23.4800 C   0  0  0  0  0  0
   34.3100   37.0400   22.5100 C   0  0  0  0  0  0
   33.9300   37.6500   23.6600 N   0  0  0  0  0  0
   35.2500   37.1300   20.2300 C   0  0  0  0  0  0
   34.8000   37.8100   21.4400 C   0  0  0  0  0  0
   34.8500   39.2100   21.6200 C   0  0  0  0  0  0
   34.4800   39.7900   22.7800 N   0  0  0  0  0  0
   34.0400   38.9800   23.7400 C   0  0  0  0  0  0
   33.6700   39.5700   24.9300 N   0  0  0  0  0  0
   33.0500   38.9400   26.0900 C   0  0  2  0  0  0
   31.6200   39.4400   26.2500 C   0  0  0  0  0  0
   33.9200   39.1100   27.3600 C   0  0  0  0  0  0
   34.2000   40.5000   27.7100 N   0  0  0  0  0  0
   35.3700   41.1000   27.4000 N   0  0  0  0  0  0
   35.1500   42.2900   27.9300 C   0  0  0  0  0  0
   33.9300   42.4200   28.5200 N   0  0  0  0  0  0
   33.3400   41.2800   28.3900 N   0  0  0  0  0  0
   33.3900   35.4800   24.3000 H   0  0  0  0  0  0
   32.8300   34.2500   23.1700 H   0  0  0  0  0  0
   34.4300   34.1400   23.9100 H   0  0  0  0  0  0
   35.6900   37.7400   19.4600 H   0  0  0  0  0  0
   35.2200   39.8600   20.8300 H   0  0  0  0  0  0
   33.8400   40.5600   25.0000 H   0  0  0  0  0  0
   32.9800   37.8700   25.9000 H   0  0  0  0  0  0
   31.1300   38.9700   27.1100 H   0  0  0  0  0  0
   31.5700   40.5200   26.4000 H   0  0  0  0  0  0
   31.0300   39.2000   25.3700 H   0  0  0  0  0  0
   33.4300   38.6400   28.2100 H   0  0  0  0  0  0
   34.8700   38.5900   27.2300 H   0  0  0  0  0  0
   35.8800   43.0900   27.8800 H   0  0  0  0  0  0
   35.6600   35.1800   19.0100 O   0  0  0  0  0  0
   37.2600   38.0600   16.4500 C   0  0  0  0  0  0
   38.0800   37.4300   17.4000 C   0  0  0  0  0  0
   37.5400   36.4600   18.2600 C   0  0  0  0  0  0
   36.1900   36.1200   18.1700 C   0  0  0  0  0  0
   35.3600   36.7500   17.2200 C   0  0  0  0  0  0
   35.9000   37.7200   16.3600 C   0  0  0  0  0  0
   37.7700   38.9800   15.6300 F   0  0  0  0  0  0
   39.1500   37.7000   17.4700 H   0  0  0  0  0  0
   38.3200   35.8600   19.1700 F   0  0  0  0  0  0
   34.3000   36.4800   17.1500 H   0  0  0  0  0  0
   35.2600   38.2100   15.6200 H   0  0  0  0  0  0
  1  2  1  0  0  0
  1  8  2  0  0  0
  1 35  1  0  0  0
  2  3  2  0  0  0
  2  4  1  0  0  0
  4  5  1  0  0  0
  4  6  1  0  0  0
  5 22  1  0  0  0
  5 23  1  0  0  0
  5 24  1  0  0  0
  6  7  1  0  0  0
  6  9  2  0  0  0
  7 12  2  0  0  0
  8  9  1  0  0  0
  8 25  1  0  0  0
  9 10  1  0  0  0
 10 11  2  0  0  0
 10 26  1  0  0  0
 11 12  1  0  0  0
 12 13  1  0  0  0
 13 14  1  0  0  0
 13 27  1  0  0  0
 14 15  1  0  0  0
 14 16  1  0  0  0
 14 28  1  0  0  0
 15 29  1  0  0  0
 15 30  1  0  0  0
 15 31  1  0  0  0
 16 17  1  0  0  0
 16 32  1  0  0  0
 16 33  1  0  0  0
 17 18  1  0  0  0
 17 21  1  0  0  0
 18 19  2  0  0  0
 19 20  1  0  0  0
 19 34  1  0  0  0
 20 21  2  0  0  0
 35 39  1  0  0  0
 36 37  1  0  0  0
 36 41  2  0  0  0
 36 42  1  0  0  0
 37 38  2  0  0  0
 37 43  1  0  0  0
 38 39  1  0  0  0
 38 44  1  0  0  0
 39 40  2  0  0  0
 40 41  1  0  0  0
 40 45  1  0  0  0
 41 46  1  0  0  0
M  END
> <s_m_entry_id>
32

> <s_m_entry_name>
lig_p38a_3fmh.1

> <s_pdb_PDB_TITLE>
MX MODEL

> <i_pdb_PDB_Model>
1

> <r_pdb_PDB_CRYST1_a>
162.38

> <r_pdb_PDB_CRYST1_b>
186.22

> <r_pdb_PDB_CRYST1_c>
258.14

> <r_pdb_PDB_CRYST1_alpha>
90

> <r_pdb_PDB_CRYST1_beta>
90

> <r_pdb_PDB_CRYST1_gamma>
90

> <s_pdb_PDB_CRYST1_Space_Group>
P 1

> <i_pdb_PDB_CRYST1_z>
1

> <s_pdb_PDB_format_version>
3.0

> <s_m_Source_Path>
/users/home/dhahn3/projects/PLBenchmarks/PLBenchmarks/data/2019-12-09_p38/03_docked

> <s_m_Source_File>
lig_p38a_3fmh.pdb

> <i_m_Source_File_Index>
1

$$$$
