@<TRIPOS>MOLECULE
lig_p38a_2j
 48 51 0 0 0
SMALL
GASTEIGER
****
Structure written by MMmdl.
@<TRIPOS>ATOM
      1 C          38.4400   36.3400   16.6500 C.ar    1  LIG1        0.0091
      2 C          34.5500   34.9800   21.1800 C.ar    1  LIG1        0.2561
      3 C          37.8000   35.8000   17.7900 C.ar    1  LIG1        0.1296
      4 C          34.0400   38.9800   23.7400 C.ar    1  LIG1        0.2173
      5 C          34.8000   37.8100   21.4400 C.ar    1  LIG1        0.0362
      6 C          35.2500   37.1300   20.2300 C.ar    1  LIG1       -0.0410
      7 C          36.2700   36.6100   15.5600 C.ar    1  LIG1       -0.0260
      8 C          35.6400   36.0500   16.6900 C.ar    1  LIG1       -0.0528
      9 C          34.3100   37.0400   22.5100 C.ar    1  LIG1        0.1482
     10 C          34.8500   39.2100   21.6200 C.ar    1  LIG1        0.0418
     11 C          35.1700   35.7800   20.1300 C.ar    1  LIG1        0.0222
     12 C          36.4000   35.6600   17.8100 C.ar    1  LIG1       -0.0075
     13 C          33.6700   34.8300   23.4600 C.3     1  LIG1        0.0166
     14 F          38.5300   35.4400   18.8400 F       1  LIG1       -0.2051
     15 C          35.6900   35.0000   18.9600 C.3     1  LIG1        0.0055
     16 N          34.4800   39.7900   22.7800 N.ar    1  LIG1       -0.2222
     17 O          34.3300   33.7800   21.0200 O.2     1  LIG1       -0.2673
     18 N          34.2100   35.6200   22.3400 N.ar    1  LIG1       -0.2956
     19 N          33.9300   37.6500   23.6600 N.ar    1  LIG1       -0.1964
     20 N          33.6700   39.5700   24.9300 N.pl3   1  LIG1       -0.3104
     21 H          39.5100   36.4500   16.6300 H       1  LIG1        0.0675
     22 H          35.7000   37.7400   19.4700 H       1  LIG1        0.0630
     23 H          35.6800   36.9200   14.7100 H       1  LIG1        0.0646
     24 H          34.5700   35.9100   16.6900 H       1  LIG1        0.0622
     25 H          35.2200   39.8600   20.8400 H       1  LIG1        0.0838
     26 H          33.4400   35.4700   24.3200 H       1  LIG1        0.0457
     27 H          32.7400   34.3400   23.1600 H       1  LIG1        0.0457
     28 H          34.3500   34.0600   23.8400 H       1  LIG1        0.0457
     29 H          33.7900   40.5700   24.9700 H       1  LIG1        0.1492
     30 H          36.4300   34.2800   19.3100 H       1  LIG1        0.0364
     31 H          34.8700   34.4700   18.4700 H       1  LIG1        0.0364
     32 C          37.7000   36.7900   15.4900 C.ar    1  LIG1        0.1261
     33 F          38.3000   37.3200   14.4300 F       1  LIG1       -0.2054
     34 C          31.1300   38.3300   27.4800 C.3     1  LIG1        0.0493
     35 C          31.7000   39.1500   26.3100 C.3     1  LIG1       -0.0109
     36 C          33.1500   38.7500   26.0100 C.3     1  LIG1        0.0275
     37 C          34.0300   38.9100   27.2600 C.3     1  LIG1       -0.0109
     38 C          33.4700   38.1000   28.4300 C.3     1  LIG1        0.0493
     39 O          32.0100   38.4900   28.7300 O.3     1  LIG1       -0.3796
     40 H          31.6500   40.2300   26.5500 H       1  LIG1        0.0305
     41 H          31.0600   38.9900   25.4000 H       1  LIG1        0.0305
     42 H          33.1900   37.6900   25.6600 H       1  LIG1        0.0500
     43 H          35.0800   38.5900   27.0300 H       1  LIG1        0.0305
     44 H          34.0800   39.9900   27.5400 H       1  LIG1        0.0305
     45 H          33.5200   37.0100   28.1900 H       1  LIG1        0.0560
     46 H          34.1000   38.2500   29.3400 H       1  LIG1        0.0560
     47 H          31.0900   37.2800   27.2000 H       1  LIG1        0.0560
     48 H          30.1200   38.6600   27.7000 H       1  LIG1        0.0560
@<TRIPOS>BOND
     1     1     3   ar
     2     1    21    1
     3     1    32   ar
     4     2    11   ar
     5     2    17    2
     6     2    18   ar
     7     3    12   ar
     8     3    14    1
     9     4    16   ar
    10     4    19   ar
    11     4    20    1
    12     5     6   ar
    13     5     9   ar
    14     5    10   ar
    15     6    11   ar
    16     6    22    1
    17     7     8   ar
    18     7    23    1
    19     7    32   ar
    20     8    12   ar
    21     8    24    1
    22     9    18   ar
    23     9    19   ar
    24    10    16   ar
    25    10    25    1
    26    11    15    1
    27    12    15    1
    28    13    18    1
    29    13    26    1
    30    13    27    1
    31    13    28    1
    32    15    30    1
    33    15    31    1
    34    20    29    1
    35    20    36    1
    36    32    33    1
    37    34    35    1
    38    34    39    1
    39    34    47    1
    40    34    48    1
    41    35    36    1
    42    35    40    1
    43    35    41    1
    44    36    37    1
    45    36    42    1
    46    37    38    1
    47    37    43    1
    48    37    44    1
    49    38    39    1
    50    38    45    1
    51    38    46    1
