@<TRIPOS>MOLECULE
lig_p38a_2q
 59 63 0 0 0
SMALL
GASTEIGER
****
Structure written by MMmdl.
@<TRIPOS>ATOM
      1 C          34.5500   34.9800   21.1800 C.ar    1  LIG1        0.2956
      2 C          34.0400   38.9800   23.7400 C.ar    1  LIG1        0.2173
      3 C          34.8000   37.8100   21.4400 C.ar    1  LIG1        0.0394
      4 C          35.2500   37.1300   20.2300 C.ar    1  LIG1       -0.0018
      5 C          34.3100   37.0400   22.5100 C.ar    1  LIG1        0.1489
      6 C          34.8500   39.2100   21.6200 C.ar    1  LIG1        0.0419
      7 C          35.1700   35.7800   20.1300 C.ar    1  LIG1        0.1935
      8 N          34.4800   39.7900   22.7800 N.ar    1  LIG1       -0.2222
      9 O          34.3300   33.7800   21.0200 O.2     1  LIG1       -0.2636
     10 N          34.2100   35.6200   22.3400 N.ar    1  LIG1       -0.2865
     11 N          33.9300   37.6500   23.6600 N.ar    1  LIG1       -0.1964
     12 N          33.6700   39.5700   24.9300 N.pl3   1  LIG1       -0.3104
     13 H          35.7000   37.7400   19.4700 H       1  LIG1        0.0664
     14 H          35.2200   39.8600   20.8400 H       1  LIG1        0.0838
     15 H          33.7900   40.5700   24.9700 H       1  LIG1        0.1492
     16 C          31.9900   33.2000   24.2700 C.3     1  LIG1        0.0676
     17 C          32.5400   33.9800   23.0600 C.3     1  LIG1       -0.0125
     18 C          33.7300   34.8600   23.4800 C.3     1  LIG1        0.0424
     19 C          33.3500   35.8100   24.6200 C.3     1  LIG1       -0.0125
     20 C          32.7900   35.0300   25.8200 C.3     1  LIG1        0.0676
     21 H          32.7600   32.4800   24.6300 H       1  LIG1        0.0500
     22 H          31.1000   32.6000   23.9500 H       1  LIG1        0.0500
     23 H          31.7400   34.6300   22.6400 H       1  LIG1        0.0301
     24 H          32.8500   33.2700   22.2600 H       1  LIG1        0.0301
     25 H          34.5800   34.2000   23.8100 H       1  LIG1        0.0530
     26 H          34.2400   36.4100   24.9400 H       1  LIG1        0.0301
     27 H          32.5800   36.5300   24.2600 H       1  LIG1        0.0301
     28 H          33.6000   34.3800   26.2500 H       1  LIG1        0.0500
     29 H          32.4800   35.7400   26.6300 H       1  LIG1        0.0500
     30 S          31.5800   34.1600   25.4200 S.O2    1  LIG1       -0.0309
     31 O          30.5200   35.0600   24.9100 O.2     1  LIG1       -0.1744
     32 O          31.2100   33.3200   26.5800 O.2     1  LIG1       -0.1744
     33 C          31.1300   38.3300   27.4800 C.3     1  LIG1        0.0493
     34 C          31.7000   39.1500   26.3100 C.3     1  LIG1       -0.0109
     35 C          33.1500   38.7500   26.0100 C.3     1  LIG1        0.0275
     36 C          34.0300   38.9100   27.2600 C.3     1  LIG1       -0.0109
     37 C          33.4700   38.1000   28.4300 C.3     1  LIG1        0.0493
     38 O          32.0100   38.4900   28.7300 O.3     1  LIG1       -0.3796
     39 H          31.0900   37.2500   27.2000 H       1  LIG1        0.0560
     40 H          30.0900   38.6500   27.7100 H       1  LIG1        0.0560
     41 H          31.6500   40.2300   26.5500 H       1  LIG1        0.0305
     42 H          31.0600   38.9900   25.4000 H       1  LIG1        0.0305
     43 H          33.1900   37.6900   25.6600 H       1  LIG1        0.0500
     44 H          35.0800   38.5900   27.0300 H       1  LIG1        0.0305
     45 H          34.0800   39.9900   27.5400 H       1  LIG1        0.0305
     46 H          33.5200   37.0100   28.1900 H       1  LIG1        0.0560
     47 H          34.1000   38.2500   29.3400 H       1  LIG1        0.0560
     48 O          35.6600   35.1800   19.0100 O.3     1  LIG1       -0.4477
     49 C          37.2600   38.0600   16.4500 C.ar    1  LIG1        0.1264
     50 C          38.0600   37.4800   17.4500 C.ar    1  LIG1        0.0125
     51 C          37.5200   36.5100   18.3100 C.ar    1  LIG1        0.1681
     52 C          36.1900   36.1200   18.1700 C.ar    1  LIG1        0.1639
     53 C          35.3800   36.6900   17.1700 C.ar    1  LIG1       -0.0137
     54 C          35.9200   37.6600   16.3100 C.ar    1  LIG1       -0.0228
     55 F          37.7700   38.9800   15.6300 F       1  LIG1       -0.2054
     56 H          39.1200   37.8000   17.5600 H       1  LIG1        0.0676
     57 F          38.2900   35.9700   19.2600 F       1  LIG1       -0.2015
     58 H          34.3300   36.3800   17.0600 H       1  LIG1        0.0656
     59 H          35.2900   38.1100   15.5300 H       1  LIG1        0.0647
@<TRIPOS>BOND
     1     1     7   ar
     2     1     9    2
     3     1    10   ar
     4     2     8   ar
     5     2    11   ar
     6     2    12    1
     7     3     4   ar
     8     3     5   ar
     9     3     6   ar
    10     4     7   ar
    11     4    13    1
    12     5    10   ar
    13     5    11   ar
    14     6     8   ar
    15     6    14    1
    16     7    48    1
    17    10    18    1
    18    12    15    1
    19    12    35    1
    20    16    17    1
    21    16    21    1
    22    16    22    1
    23    16    30    1
    24    17    18    1
    25    17    23    1
    26    17    24    1
    27    18    19    1
    28    18    25    1
    29    19    20    1
    30    19    26    1
    31    19    27    1
    32    20    28    1
    33    20    29    1
    34    20    30    1
    35    30    31    2
    36    30    32    2
    37    33    34    1
    38    33    38    1
    39    33    39    1
    40    33    40    1
    41    34    35    1
    42    34    41    1
    43    34    42    1
    44    35    36    1
    45    35    43    1
    46    36    37    1
    47    36    44    1
    48    36    45    1
    49    37    38    1
    50    37    46    1
    51    37    47    1
    52    48    52    1
    53    49    50   ar
    54    49    54   ar
    55    49    55    1
    56    50    51   ar
    57    50    56    1
    58    51    52   ar
    59    51    57    1
    60    52    53   ar
    61    53    54   ar
    62    53    58    1
    63    54    59    1
