lig_p38a_2k
                    3D
 Structure written by MMmdl.
 43 46  0  0  1  0            999 V2000
   34.5500   34.9800   21.1800 C   0  0  0  0  0  0
   34.0400   38.9800   23.7400 C   0  0  0  0  0  0
   34.8000   37.8100   21.4400 C   0  0  0  0  0  0
   35.2500   37.1300   20.2300 C   0  0  0  0  0  0
   34.3100   37.0400   22.5100 C   0  0  0  0  0  0
   34.8500   39.2100   21.6200 C   0  0  0  0  0  0
   35.1700   35.7800   20.1300 C   0  0  0  0  0  0
   33.8400   35.0800   23.1100 H   0  0  0  0  0  0
   34.4800   39.7900   22.7800 N   0  0  0  0  0  0
   34.3300   33.7800   21.0200 O   0  0  0  0  0  0
   34.2100   35.6200   22.3400 N   0  0  0  0  0  0
   33.9300   37.6500   23.6600 N   0  0  0  0  0  0
   33.6700   39.5700   24.9300 N   0  0  0  0  0  0
   35.7000   37.7400   19.4700 H   0  0  0  0  0  0
   35.2200   39.8600   20.8400 H   0  0  0  0  0  0
   33.7900   40.5700   24.9700 H   0  0  0  0  0  0
   31.1200   38.3100   27.4600 C   0  0  0  0  0  0
   31.6800   39.1200   26.2900 C   0  0  0  0  0  0
   33.1500   38.7500   26.0100 C   0  0  0  0  0  0
   34.0100   38.9400   27.2700 C   0  0  0  0  0  0
   33.4500   38.1200   28.4400 C   0  0  0  0  0  0
   31.9900   38.4900   28.7200 O   0  0  0  0  0  0
   31.1000   37.2300   27.1800 H   0  0  0  0  0  0
   30.0700   38.6200   27.6700 H   0  0  0  0  0  0
   31.6200   40.2100   26.5200 H   0  0  0  0  0  0
   31.0700   38.9500   25.3700 H   0  0  0  0  0  0
   33.2100   37.6900   25.6700 H   0  0  0  0  0  0
   35.0700   38.6300   27.0600 H   0  0  0  0  0  0
   34.0400   40.0200   27.5400 H   0  0  0  0  0  0
   33.5200   37.0300   28.2000 H   0  0  0  0  0  0
   34.0700   38.2900   29.3600 H   0  0  0  0  0  0
   35.6600   35.1800   19.0100 O   0  0  0  0  0  0
   37.2600   38.0600   16.4500 C   0  0  0  0  0  0
   38.0800   37.4500   17.4200 C   0  0  0  0  0  0
   37.5400   36.4800   18.2800 C   0  0  0  0  0  0
   36.1900   36.1200   18.1700 C   0  0  0  0  0  0
   35.3700   36.7300   17.2100 C   0  0  0  0  0  0
   35.9100   37.7000   16.3500 C   0  0  0  0  0  0
   37.7700   38.9800   15.6300 F   0  0  0  0  0  0
   39.1400   37.7300   17.5000 H   0  0  0  0  0  0
   38.3100   35.9000   19.2000 F   0  0  0  0  0  0
   34.3100   36.4400   17.1200 H   0  0  0  0  0  0
   35.2700   38.1800   15.5900 H   0  0  0  0  0  0
  1  7  1  0  0  0
  1 10  2  0  0  0
  1 11  1  0  0  0
  2  9  1  0  0  0
  2 12  2  0  0  0
  2 13  1  0  0  0
  3  4  1  0  0  0
  3  5  2  0  0  0
  3  6  1  0  0  0
  4  7  2  0  0  0
  4 14  1  0  0  0
  5 11  1  0  0  0
  5 12  1  0  0  0
  6  9  2  0  0  0
  6 15  1  0  0  0
  7 32  1  0  0  0
  8 11  1  0  0  0
 13 16  1  0  0  0
 13 19  1  0  0  0
 17 18  1  0  0  0
 17 22  1  0  0  0
 17 23  1  0  0  0
 17 24  1  0  0  0
 18 19  1  0  0  0
 18 25  1  0  0  0
 18 26  1  0  0  0
 19 20  1  0  0  0
 19 27  1  0  0  0
 20 21  1  0  0  0
 20 28  1  0  0  0
 20 29  1  0  0  0
 21 22  1  0  0  0
 21 30  1  0  0  0
 21 31  1  0  0  0
 32 36  1  0  0  0
 33 34  1  0  0  0
 33 38  2  0  0  0
 33 39  1  0  0  0
 34 35  2  0  0  0
 34 40  1  0  0  0
 35 36  1  0  0  0
 35 41  1  0  0  0
 36 37  2  0  0  0
 37 38  1  0  0  0
 37 42  1  0  0  0
 38 43  1  0  0  0
M  END
> <s_m_entry_id>
12

> <s_m_entry_name>
lig_p38a_2k.1

> <s_pdb_PDB_TITLE>
MX MODEL

> <i_pdb_PDB_Model>
1

> <r_pdb_PDB_CRYST1_a>
181.38

> <r_pdb_PDB_CRYST1_b>
135.86

> <r_pdb_PDB_CRYST1_c>
275.42

> <r_pdb_PDB_CRYST1_alpha>
90

> <r_pdb_PDB_CRYST1_beta>
90

> <r_pdb_PDB_CRYST1_gamma>
90

> <s_pdb_PDB_CRYST1_Space_Group>
P 1

> <i_pdb_PDB_CRYST1_z>
1

> <s_pdb_PDB_format_version>
3.0

> <s_m_Source_Path>
/users/home/dhahn3/projects/PLBenchmarks/PLBenchmarks/data/2019-12-09_p38/03_docked

> <s_m_Source_File>
lig_p38a_2k.pdb

> <i_m_Source_File_Index>
1

$$$$
