@<TRIPOS>MOLECULE
lig_p38a_2e
 46 49 0 0 0
SMALL
GASTEIGER
****
Structure written by MMmdl.
@<TRIPOS>ATOM
      1 C          34.5500   34.9800   21.1800 C.ar    1  LIG1        0.2951
      2 C          34.0400   38.9800   23.7400 C.ar    1  LIG1        0.2173
      3 C          34.8000   37.8100   21.4400 C.ar    1  LIG1        0.0394
      4 C          35.2500   37.1300   20.2300 C.ar    1  LIG1       -0.0018
      5 C          34.3100   37.0400   22.5100 C.ar    1  LIG1        0.1484
      6 C          34.8500   39.2100   21.6200 C.ar    1  LIG1        0.0419
      7 C          35.1700   35.7800   20.1300 C.ar    1  LIG1        0.1933
      8 C          33.6300   34.8400   23.4300 C.3     1  LIG1        0.0168
      9 N          34.4800   39.7900   22.7800 N.ar    1  LIG1       -0.2222
     10 O          34.3300   33.7800   21.0200 O.2     1  LIG1       -0.2636
     11 N          34.2100   35.6200   22.3400 N.ar    1  LIG1       -0.2928
     12 N          33.9300   37.6500   23.6600 N.ar    1  LIG1       -0.1964
     13 N          33.6700   39.5700   24.9300 N.pl3   1  LIG1       -0.3104
     14 H          35.6900   37.7200   19.4400 H       1  LIG1        0.0664
     15 H          35.2200   39.8600   20.8400 H       1  LIG1        0.0838
     16 H          33.4200   35.4900   24.2800 H       1  LIG1        0.0457
     17 H          32.7000   34.3800   23.0900 H       1  LIG1        0.0457
     18 H          34.3300   34.0600   23.7300 H       1  LIG1        0.0457
     19 H          33.7300   40.5700   24.9800 H       1  LIG1        0.1492
     20 C          31.3100   38.3200   27.6400 C.3     1  LIG1        0.0493
     21 C          31.8000   39.1500   26.4400 C.3     1  LIG1       -0.0109
     22 C          33.2200   38.7400   26.0300 C.3     1  LIG1        0.0275
     23 C          34.1900   38.8800   27.2200 C.3     1  LIG1       -0.0109
     24 C          33.7100   38.0600   28.4200 C.3     1  LIG1        0.0493
     25 O          32.2800   38.4600   28.8300 O.3     1  LIG1       -0.3796
     26 H          31.2300   37.2500   27.3500 H       1  LIG1        0.0560
     27 H          30.2900   38.6600   27.9500 H       1  LIG1        0.0560
     28 H          31.7800   40.2300   26.7000 H       1  LIG1        0.0305
     29 H          31.1000   39.0100   25.5800 H       1  LIG1        0.0305
     30 H          33.2200   37.6900   25.6700 H       1  LIG1        0.0500
     31 H          35.2200   38.5500   26.9100 H       1  LIG1        0.0305
     32 H          34.2700   39.9500   27.5100 H       1  LIG1        0.0305
     33 H          33.7300   36.9700   28.1600 H       1  LIG1        0.0560
     34 H          34.4100   38.1900   29.2800 H       1  LIG1        0.0560
     35 O          35.6600   35.1800   19.0100 O.3     1  LIG1       -0.4506
     36 C          37.2600   38.0600   16.4500 C.ar    1  LIG1        0.1236
     37 C          38.0800   37.4500   17.4200 C.ar    1  LIG1       -0.0230
     38 C          37.5400   36.4800   18.2800 C.ar    1  LIG1       -0.0166
     39 C          36.1900   36.1200   18.1700 C.ar    1  LIG1        0.1289
     40 C          35.3700   36.7300   17.2100 C.ar    1  LIG1       -0.0166
     41 C          35.9100   37.7000   16.3500 C.ar    1  LIG1       -0.0230
     42 F          37.7700   38.9800   15.6300 F       1  LIG1       -0.2055
     43 H          39.1400   37.7300   17.5000 H       1  LIG1        0.0647
     44 H          38.1800   36.0000   19.0400 H       1  LIG1        0.0655
     45 H          34.3100   36.4400   17.1200 H       1  LIG1        0.0655
     46 H          35.2700   38.1800   15.5900 H       1  LIG1        0.0647
@<TRIPOS>BOND
     1     1     7   ar
     2     1    10    2
     3     1    11   ar
     4     2     9   ar
     5     2    12   ar
     6     2    13    1
     7     3     4   ar
     8     3     5   ar
     9     3     6   ar
    10     4     7   ar
    11     4    14    1
    12     5    11   ar
    13     5    12   ar
    14     6     9   ar
    15     6    15    1
    16     7    35    1
    17     8    11    1
    18     8    16    1
    19     8    17    1
    20     8    18    1
    21    13    19    1
    22    13    22    1
    23    20    21    1
    24    20    25    1
    25    20    26    1
    26    20    27    1
    27    21    22    1
    28    21    28    1
    29    21    29    1
    30    22    23    1
    31    22    30    1
    32    23    24    1
    33    23    31    1
    34    23    32    1
    35    24    25    1
    36    24    33    1
    37    24    34    1
    38    35    39    1
    39    36    37   ar
    40    36    41   ar
    41    36    42    1
    42    37    38   ar
    43    37    43    1
    44    38    39   ar
    45    38    44    1
    46    39    40   ar
    47    40    41   ar
    48    40    45    1
    49    41    46    1
