@<TRIPOS>MOLECULE
lig_p38a_2p
 58 61 0 0 0
SMALL
GASTEIGER
****
Structure written by MMmdl.
@<TRIPOS>ATOM
      1 C          34.5500   34.9800   21.1800 C.ar    1  LIG1        0.2953
      2 C          34.0400   38.9800   23.7400 C.ar    1  LIG1        0.2173
      3 C          34.8000   37.8100   21.4400 C.ar    1  LIG1        0.0394
      4 C          35.2500   37.1300   20.2300 C.ar    1  LIG1       -0.0018
      5 C          34.3100   37.0400   22.5100 C.ar    1  LIG1        0.1487
      6 C          34.8500   39.2100   21.6200 C.ar    1  LIG1        0.0419
      7 C          35.1700   35.7800   20.1300 C.ar    1  LIG1        0.1935
      8 N          34.4800   39.7900   22.7800 N.ar    1  LIG1       -0.2222
      9 O          34.3300   33.7800   21.0200 O.2     1  LIG1       -0.2636
     10 N          34.2100   35.6200   22.3400 N.ar    1  LIG1       -0.2896
     11 N          33.9300   37.6500   23.6600 N.ar    1  LIG1       -0.1964
     12 N          33.6700   39.5700   24.9300 N.pl3   1  LIG1       -0.3104
     13 H          35.7000   37.7400   19.4700 H       1  LIG1        0.0664
     14 H          35.2200   39.8600   20.8400 H       1  LIG1        0.0838
     15 H          33.7900   40.5700   24.9700 H       1  LIG1        0.1492
     16 C          33.6800   34.8400   23.4400 C.3     1  LIG1        0.0296
     17 H          33.4600   35.5200   24.3100 H       1  LIG1        0.0494
     18 H          32.7300   34.3400   23.1200 H       1  LIG1        0.0494
     19 C          34.7000   33.7900   23.8700 C.3     1  LIG1       -0.0154
     20 H          34.9100   33.1100   23.0100 H       1  LIG1        0.0298
     21 H          35.6400   34.3000   24.1900 H       1  LIG1        0.0298
     22 C          34.1300   32.9800   25.0300 C.3     1  LIG1        0.0671
     23 H          33.9200   33.6600   25.8900 H       1  LIG1        0.0500
     24 H          34.8800   32.2100   25.3400 H       1  LIG1        0.0500
     25 S          32.8700   32.3000   24.6000 S.O2    1  LIG1       -0.0337
     26 O          33.1900   31.4100   23.4600 O.2     1  LIG1       -0.1746
     27 O          31.8500   33.3400   24.3400 O.2     1  LIG1       -0.1746
     28 C          32.3900   31.4500   25.7400 C.3     1  LIG1        0.0544
     29 H          32.1400   32.1000   26.6100 H       1  LIG1        0.0464
     30 H          31.4800   30.8900   25.4200 H       1  LIG1        0.0464
     31 H          33.1900   30.7300   26.0300 H       1  LIG1        0.0464
     32 C          31.1200   38.3100   27.4600 C.3     1  LIG1        0.0493
     33 C          31.6800   39.1200   26.2900 C.3     1  LIG1       -0.0109
     34 C          33.1500   38.7500   26.0100 C.3     1  LIG1        0.0275
     35 C          34.0100   38.9400   27.2700 C.3     1  LIG1       -0.0109
     36 C          33.4500   38.1200   28.4400 C.3     1  LIG1        0.0493
     37 O          31.9900   38.4900   28.7200 O.3     1  LIG1       -0.3796
     38 H          31.1000   37.2300   27.1800 H       1  LIG1        0.0560
     39 H          30.0700   38.6200   27.6700 H       1  LIG1        0.0560
     40 H          31.6200   40.2100   26.5200 H       1  LIG1        0.0305
     41 H          31.0700   38.9500   25.3700 H       1  LIG1        0.0305
     42 H          33.2100   37.6900   25.6700 H       1  LIG1        0.0500
     43 H          35.0700   38.6300   27.0600 H       1  LIG1        0.0305
     44 H          34.0400   40.0200   27.5400 H       1  LIG1        0.0305
     45 H          33.5200   37.0300   28.2000 H       1  LIG1        0.0560
     46 H          34.0700   38.2900   29.3600 H       1  LIG1        0.0560
     47 O          35.6600   35.1800   19.0100 O.3     1  LIG1       -0.4477
     48 C          37.2600   38.0600   16.4500 C.ar    1  LIG1        0.1264
     49 C          38.0500   37.5200   17.4800 C.ar    1  LIG1        0.0125
     50 C          37.5100   36.5500   18.3500 C.ar    1  LIG1        0.1681
     51 C          36.1900   36.1200   18.1700 C.ar    1  LIG1        0.1639
     52 C          35.4000   36.6500   17.1400 C.ar    1  LIG1       -0.0137
     53 C          35.9400   37.6200   16.2800 C.ar    1  LIG1       -0.0228
     54 F          37.7700   38.9800   15.6300 F       1  LIG1       -0.2054
     55 H          39.0900   37.8600   17.6200 H       1  LIG1        0.0676
     56 F          38.2600   36.0400   19.3200 F       1  LIG1       -0.2015
     57 H          34.3600   36.3100   17.0100 H       1  LIG1        0.0656
     58 H          35.3200   38.0500   15.4700 H       1  LIG1        0.0647
@<TRIPOS>BOND
     1     1     7   ar
     2     1     9    2
     3     1    10   ar
     4     2     8   ar
     5     2    11   ar
     6     2    12    1
     7     3     4   ar
     8     3     5   ar
     9     3     6   ar
    10     4     7   ar
    11     4    13    1
    12     5    10   ar
    13     5    11   ar
    14     6     8   ar
    15     6    14    1
    16     7    47    1
    17    10    16    1
    18    12    15    1
    19    12    34    1
    20    16    17    1
    21    16    18    1
    22    16    19    1
    23    19    20    1
    24    19    21    1
    25    19    22    1
    26    22    23    1
    27    22    24    1
    28    22    25    1
    29    25    26    2
    30    25    27    2
    31    25    28    1
    32    28    29    1
    33    28    30    1
    34    28    31    1
    35    32    33    1
    36    32    37    1
    37    32    38    1
    38    32    39    1
    39    33    34    1
    40    33    40    1
    41    33    41    1
    42    34    35    1
    43    34    42    1
    44    35    36    1
    45    35    43    1
    46    35    44    1
    47    36    37    1
    48    36    45    1
    49    36    46    1
    50    47    51    1
    51    48    49   ar
    52    48    53   ar
    53    48    54    1
    54    49    50   ar
    55    49    55    1
    56    50    51   ar
    57    50    56    1
    58    51    52   ar
    59    52    53   ar
    60    52    57    1
    61    53    58    1
