@<TRIPOS>MOLECULE
lig_p38a_2ee
 52 55 0 0 0
SMALL
GASTEIGER
****
Structure written by MMmdl.
@<TRIPOS>ATOM
      1 C          34.5500   34.9800   21.1800 C.ar    1  LIG1        0.2951
      2 C          34.0400   38.9800   23.7400 C.ar    1  LIG1        0.2173
      3 C          34.8000   37.8100   21.4400 C.ar    1  LIG1        0.0394
      4 C          35.2500   37.1300   20.2300 C.ar    1  LIG1       -0.0018
      5 C          34.3100   37.0400   22.5100 C.ar    1  LIG1        0.1484
      6 C          34.8500   39.2100   21.6200 C.ar    1  LIG1        0.0419
      7 C          35.1700   35.7800   20.1300 C.ar    1  LIG1        0.1934
      8 C          33.6700   34.8300   23.4600 C.3     1  LIG1        0.0168
      9 N          34.4800   39.7900   22.7800 N.ar    1  LIG1       -0.2222
     10 O          34.3300   33.7800   21.0200 O.2     1  LIG1       -0.2636
     11 N          34.2100   35.6200   22.3400 N.ar    1  LIG1       -0.2928
     12 N          33.9300   37.6500   23.6600 N.ar    1  LIG1       -0.1964
     13 N          33.6700   39.5700   24.9300 N.pl3   1  LIG1       -0.3105
     14 H          35.7000   37.7400   19.4700 H       1  LIG1        0.0664
     15 H          35.2200   39.8600   20.8400 H       1  LIG1        0.0838
     16 H          33.4000   35.4700   24.3000 H       1  LIG1        0.0457
     17 H          32.7700   34.3000   23.1400 H       1  LIG1        0.0457
     18 H          34.3700   34.1000   23.8700 H       1  LIG1        0.0457
     19 H          33.7900   40.5700   24.9700 H       1  LIG1        0.1492
     20 C          31.1200   38.3000   27.4500 C.3     1  LIG1        0.0163
     21 C          31.6800   39.1100   26.2700 C.3     1  LIG1       -0.0186
     22 C          33.1500   38.7500   26.0100 C.3     1  LIG1        0.0262
     23 C          34.0000   38.9500   27.2700 C.3     1  LIG1       -0.0186
     24 C          33.4400   38.1300   28.4500 C.3     1  LIG1        0.0163
     25 H          31.1000   37.2200   27.1800 H       1  LIG1        0.0465
     26 H          30.0600   38.6000   27.6500 H       1  LIG1        0.0465
     27 H          31.6000   40.2000   26.5100 H       1  LIG1        0.0298
     28 H          31.0700   38.9300   25.3600 H       1  LIG1        0.0298
     29 H          33.2200   37.6900   25.6700 H       1  LIG1        0.0499
     30 H          35.0600   38.6500   27.0700 H       1  LIG1        0.0298
     31 H          34.0200   40.0300   27.5400 H       1  LIG1        0.0298
     32 H          33.5200   37.0400   28.2100 H       1  LIG1        0.0465
     33 H          34.0500   38.3100   29.3600 H       1  LIG1        0.0465
     34 N          32.0000   38.4700   28.6500 N.am    1  LIG1       -0.3016
     35 C          31.5100   38.9100   29.8600 C.2     1  LIG1        0.2125
     36 O          30.4900   39.5600   29.9200 O.2     1  LIG1       -0.2759
     37 C          32.2800   38.5700   31.1500 C.3     1  LIG1        0.0124
     38 H          33.1600   37.9800   30.9000 H       1  LIG1        0.0323
     39 H          32.5800   39.4800   31.6500 H       1  LIG1        0.0323
     40 H          31.6400   37.9900   31.8200 H       1  LIG1        0.0323
     41 O          35.6600   35.1800   19.0100 O.3     1  LIG1       -0.4477
     42 C          37.2600   38.0600   16.4500 C.ar    1  LIG1        0.1264
     43 C          38.0700   37.4600   17.4300 C.ar    1  LIG1        0.0125
     44 C          37.5300   36.4900   18.2900 C.ar    1  LIG1        0.1681
     45 C          36.1900   36.1200   18.1700 C.ar    1  LIG1        0.1639
     46 C          35.3700   36.7200   17.2000 C.ar    1  LIG1       -0.0137
     47 C          35.9100   37.6900   16.3400 C.ar    1  LIG1       -0.0228
     48 F          37.7700   38.9800   15.6300 F       1  LIG1       -0.2054
     49 H          39.1300   37.7500   17.5200 H       1  LIG1        0.0676
     50 F          38.3100   35.9200   19.2100 F       1  LIG1       -0.2015
     51 H          34.3100   36.4300   17.1100 H       1  LIG1        0.0656
     52 H          35.2700   38.1600   15.5700 H       1  LIG1        0.0647
@<TRIPOS>BOND
     1     1     7   ar
     2     1    10    2
     3     1    11   ar
     4     2     9   ar
     5     2    12   ar
     6     2    13    1
     7     3     4   ar
     8     3     5   ar
     9     3     6   ar
    10     4     7   ar
    11     4    14    1
    12     5    11   ar
    13     5    12   ar
    14     6     9   ar
    15     6    15    1
    16     7    41    1
    17     8    11    1
    18     8    16    1
    19     8    17    1
    20     8    18    1
    21    13    19    1
    22    13    22    1
    23    20    21    1
    24    20    25    1
    25    20    26    1
    26    20    34    1
    27    21    22    1
    28    21    27    1
    29    21    28    1
    30    22    23    1
    31    22    29    1
    32    23    24    1
    33    23    30    1
    34    23    31    1
    35    24    32    1
    36    24    33    1
    37    24    34    1
    38    34    35   am
    39    35    36    2
    40    35    37    1
    41    37    38    1
    42    37    39    1
    43    37    40    1
    44    41    45    1
    45    42    43   ar
    46    42    47   ar
    47    42    48    1
    48    43    44   ar
    49    43    49    1
    50    44    45   ar
    51    44    50    1
    52    45    46   ar
    53    46    47   ar
    54    46    51    1
    55    47    52    1
