@<TRIPOS>MOLECULE
lig_p38a_2aa
 43 45 0 0 0
SMALL
GASTEIGER
****
Structure written by MMmdl.
@<TRIPOS>ATOM
      1 C          34.5500   34.9800   21.1800 C.ar    0  UNK0        0.2951
      2 C          34.0400   38.9800   23.7400 C.ar    0  UNK0        0.2174
      3 C          34.8000   37.8100   21.4400 C.ar    0  UNK0        0.0394
      4 C          35.2500   37.1300   20.2300 C.ar    0  UNK0       -0.0018
      5 C          34.3100   37.0400   22.5100 C.ar    0  UNK0        0.1484
      6 C          34.8500   39.2100   21.6200 C.ar    0  UNK0        0.0419
      7 C          35.1700   35.7800   20.1300 C.ar    0  UNK0        0.1934
      8 C          33.6700   34.8300   23.4600 C.3     0  UNK0        0.0168
      9 N          34.4800   39.7900   22.7800 N.ar    0  UNK0       -0.2222
     10 O          34.3300   33.7800   21.0200 O.2     0  UNK0       -0.2636
     11 N          34.2100   35.6200   22.3400 N.ar    0  UNK0       -0.2928
     12 N          33.9300   37.6500   23.6600 N.ar    0  UNK0       -0.1964
     13 N          33.6700   39.5700   24.9300 N.pl3   1  SER1       -0.3062
     14 H          35.7000   37.7400   19.4700 H       0  UNK0        0.0664
     15 H          35.2200   39.8600   20.8400 H       0  UNK0        0.0838
     16 H          33.5600   35.4400   24.3600 H       0  UNK0        0.0457
     17 H          32.6800   34.4500   23.2000 H       0  UNK0        0.0457
     18 H          34.2900   33.9900   23.7600 H       0  UNK0        0.0457
     19 H          33.7900   40.5700   24.9700 H       1  SER1        0.1494
     20 CA         33.1200   38.7100   26.0600 C.3     1  SER1        0.0694
     21 CB         33.9800   38.9300   27.3200 C.3     1  SER1        0.0647
     22 C          31.6700   39.1100   26.3500 C.3     1  SER1        0.0647
     23 HA         33.1600   37.6600   25.7700 H       1  SER1        0.0544
     24 OG         33.4700   38.1400   28.3800 O.3     1  SER1       -0.3931
     25 HB1        35.0100   38.6400   27.1200 H       1  SER1        0.0576
     26 HB2        33.9400   39.9800   27.6100 H       1  SER1        0.0576
     27 O          31.1600   38.3200   27.4000 O.3     1  SER1       -0.3931
     28 H1         31.6300   40.1600   26.6400 H       1  SER1        0.0576
     29 H2         31.0600   38.9600   25.4600 H       1  SER1        0.0576
     30 H          34.0000   38.2700   29.1600 H       1  SER1        0.2095
     31 H          30.2500   38.5700   27.5800 H       1  SER1        0.2095
     32 O          35.6600   35.1800   19.0100 O.3     0  UNK0       -0.4477
     33 C          37.2600   38.0600   16.4500 C.ar    0  UNK0        0.1264
     34 C          38.0600   37.5000   17.4700 C.ar    0  UNK0        0.0125
     35 C          37.5200   36.5300   18.3300 C.ar    0  UNK0        0.1681
     36 C          36.1900   36.1200   18.1700 C.ar    0  UNK0        0.1639
     37 C          35.3900   36.6700   17.1600 C.ar    0  UNK0       -0.0137
     38 C          35.9300   37.6400   16.3000 C.ar    0  UNK0       -0.0228
     39 F          37.7700   38.9800   15.6300 F       0  UNK0       -0.2054
     40 H          39.1000   37.8300   17.5900 H       0  UNK0        0.0676
     41 F          38.2700   36.0100   19.2900 F       0  UNK0       -0.2015
     42 H          34.3400   36.3500   17.0400 H       0  UNK0        0.0656
     43 H          35.3000   38.0800   15.5000 H       0  UNK0        0.0647
@<TRIPOS>BOND
     1     1     7   ar
     2     1    10    2
     3     1    11   ar
     4     2     9   ar
     5     2    12   ar
     6     2    13    1
     7     3     4   ar
     8     3     5   ar
     9     3     6   ar
    10     4     7   ar
    11     4    14    1
    12     5    11   ar
    13     5    12   ar
    14     6     9   ar
    15     6    15    1
    16     7    32    1
    17     8    11    1
    18     8    16    1
    19     8    17    1
    20     8    18    1
    21    13    19    1
    22    13    20    1
    23    20    21    1
    24    20    22    1
    25    20    23    1
    26    21    24    1
    27    21    25    1
    28    21    26    1
    29    22    27    1
    30    22    28    1
    31    22    29    1
    32    24    30    1
    33    27    31    1
    34    32    36    1
    35    33    34   ar
    36    33    38   ar
    37    33    39    1
    38    34    35   ar
    39    34    40    1
    40    35    36   ar
    41    35    41    1
    42    36    37   ar
    43    37    38   ar
    44    37    42    1
    45    38    43    1
