@<TRIPOS>MOLECULE
lig_p38a_2gg
 48 51 0 0 0
SMALL
GASTEIGER
****
Structure written by MMmdl.
@<TRIPOS>ATOM
      1 C          34.5500   34.9800   21.1800 C.ar    1  LIG1        0.2951
      2 C          34.0400   38.9800   23.7400 C.ar    1  LIG1        0.2173
      3 C          34.8000   37.8100   21.4400 C.ar    1  LIG1        0.0394
      4 C          35.2500   37.1300   20.2300 C.ar    1  LIG1       -0.0018
      5 C          34.3100   37.0400   22.5100 C.ar    1  LIG1        0.1484
      6 C          34.8500   39.2100   21.6200 C.ar    1  LIG1        0.0419
      7 C          35.1700   35.7800   20.1300 C.ar    1  LIG1        0.1934
      8 C          33.6700   34.8300   23.4600 C.3     1  LIG1        0.0168
      9 N          34.4800   39.7900   22.7800 N.ar    1  LIG1       -0.2222
     10 O          34.3300   33.7800   21.0200 O.2     1  LIG1       -0.2636
     11 N          34.2100   35.6200   22.3400 N.ar    1  LIG1       -0.2928
     12 N          33.9300   37.6500   23.6600 N.ar    1  LIG1       -0.1964
     13 N          33.6700   39.5700   24.9300 N.pl3   1  LIG1       -0.3105
     14 H          35.7000   37.7400   19.4700 H       1  LIG1        0.0664
     15 H          35.2200   39.8600   20.8400 H       1  LIG1        0.0838
     16 H          33.5700   35.4400   24.3600 H       1  LIG1        0.0457
     17 H          32.6800   34.4500   23.2000 H       1  LIG1        0.0457
     18 H          34.2900   33.9800   23.7500 H       1  LIG1        0.0457
     19 H          33.7900   40.5700   24.9700 H       1  LIG1        0.1492
     20 C          31.1500   38.3500   27.5000 C.3     1  LIG1        0.0674
     21 C          31.7100   39.1700   26.3300 C.3     1  LIG1       -0.0150
     22 C          33.1500   38.7500   26.0100 C.3     1  LIG1        0.0263
     23 C          34.0500   38.8900   27.2500 C.3     1  LIG1       -0.0150
     24 C          33.4900   38.0700   28.4200 C.3     1  LIG1        0.0674
     25 H          31.0800   37.2700   27.2100 H       1  LIG1        0.0500
     26 H          30.1100   38.6900   27.7400 H       1  LIG1        0.0500
     27 H          31.6800   40.2500   26.5800 H       1  LIG1        0.0299
     28 H          31.0600   39.0300   25.4200 H       1  LIG1        0.0299
     29 H          33.1700   37.6900   25.6500 H       1  LIG1        0.0499
     30 H          35.0900   38.5500   27.0100 H       1  LIG1        0.0299
     31 H          34.1100   39.9700   27.5400 H       1  LIG1        0.0299
     32 H          33.5200   36.9900   28.1700 H       1  LIG1        0.0500
     33 H          34.1300   38.2100   29.3300 H       1  LIG1        0.0500
     34 S          32.0400   38.4900   28.7600 S.O2    1  LIG1       -0.0309
     35 O          32.0600   39.9200   29.1400 O.2     1  LIG1       -0.1744
     36 O          31.5200   37.5600   29.7900 O.2     1  LIG1       -0.1744
     37 O          35.6600   35.1800   19.0100 O.3     1  LIG1       -0.4477
     38 C          37.2600   38.0600   16.4500 C.ar    1  LIG1        0.1264
     39 C          38.0600   37.5000   17.4700 C.ar    1  LIG1        0.0125
     40 C          37.5200   36.5300   18.3300 C.ar    1  LIG1        0.1681
     41 C          36.1900   36.1200   18.1700 C.ar    1  LIG1        0.1639
     42 C          35.3900   36.6700   17.1600 C.ar    1  LIG1       -0.0137
     43 C          35.9300   37.6400   16.3000 C.ar    1  LIG1       -0.0228
     44 F          37.7700   38.9800   15.6300 F       1  LIG1       -0.2054
     45 H          39.1000   37.8300   17.5900 H       1  LIG1        0.0676
     46 F          38.2700   36.0100   19.2900 F       1  LIG1       -0.2015
     47 H          34.3400   36.3500   17.0400 H       1  LIG1        0.0656
     48 H          35.3000   38.0800   15.5000 H       1  LIG1        0.0647
@<TRIPOS>BOND
     1     1     7   ar
     2     1    10    2
     3     1    11   ar
     4     2     9   ar
     5     2    12   ar
     6     2    13    1
     7     3     4   ar
     8     3     5   ar
     9     3     6   ar
    10     4     7   ar
    11     4    14    1
    12     5    11   ar
    13     5    12   ar
    14     6     9   ar
    15     6    15    1
    16     7    37    1
    17     8    11    1
    18     8    16    1
    19     8    17    1
    20     8    18    1
    21    13    19    1
    22    13    22    1
    23    20    21    1
    24    20    25    1
    25    20    26    1
    26    20    34    1
    27    21    22    1
    28    21    27    1
    29    21    28    1
    30    22    23    1
    31    22    29    1
    32    23    24    1
    33    23    30    1
    34    23    31    1
    35    24    32    1
    36    24    33    1
    37    24    34    1
    38    34    35    2
    39    34    36    2
    40    37    41    1
    41    38    39   ar
    42    38    43   ar
    43    38    44    1
    44    39    40   ar
    45    39    45    1
    46    40    41   ar
    47    40    46    1
    48    41    42   ar
    49    42    43   ar
    50    42    47    1
    51    43    48    1
