lig_p38a_2s
                    3D
 Structure written by MMmdl.
 54 57  0  0  1  0            999 V2000
   34.5500   34.9800   21.1800 C   0  0  0  0  0  0
   34.0400   38.9800   23.7400 C   0  0  0  0  0  0
   34.8000   37.8100   21.4400 C   0  0  0  0  0  0
   35.2500   37.1300   20.2300 C   0  0  0  0  0  0
   34.3100   37.0400   22.5100 C   0  0  0  0  0  0
   34.8500   39.2100   21.6200 C   0  0  0  0  0  0
   35.1700   35.7800   20.1300 C   0  0  0  0  0  0
   34.4800   39.7900   22.7800 N   0  0  0  0  0  0
   34.3300   33.7800   21.0200 O   0  0  0  0  0  0
   34.2100   35.6200   22.3400 N   0  0  0  0  0  0
   33.9300   37.6500   23.6600 N   0  0  0  0  0  0
   33.6700   39.5700   24.9300 N   0  0  0  0  0  0
   35.7000   37.7400   19.4700 H   0  0  0  0  0  0
   35.2200   39.8600   20.8400 H   0  0  0  0  0  0
   33.7900   40.5700   24.9700 H   0  0  0  0  0  0
   33.6800   34.8400   23.4400 C   0  0  0  0  0  0
   33.4600   35.5200   24.3100 H   0  0  0  0  0  0
   32.7300   34.3400   23.1200 H   0  0  0  0  0  0
   34.7000   33.7900   23.8700 C   0  0  2  0  0  0
   34.9700   32.9400   22.7800 O   0  0  0  0  0  0
   34.1300   32.5300   22.5500 H   0  0  0  0  0  0
   34.1300   32.9800   25.0300 C   0  0  0  0  0  0
   34.3600   33.5000   25.9900 H   0  0  0  0  0  0
   34.6000   31.9600   25.0300 H   0  0  0  0  0  0
   35.6200   34.2800   24.1800 H   0  0  0  0  0  0
   32.7400   32.8500   24.8800 O   0  0  0  0  0  0
   32.6000   32.4000   24.0500 H   0  0  0  0  0  0
   31.1200   38.3100   27.4600 C   0  0  0  0  0  0
   31.6800   39.1200   26.2900 C   0  0  0  0  0  0
   33.1500   38.7500   26.0100 C   0  0  0  0  0  0
   34.0100   38.9400   27.2700 C   0  0  0  0  0  0
   33.4500   38.1200   28.4400 C   0  0  0  0  0  0
   31.9900   38.4900   28.7200 O   0  0  0  0  0  0
   31.1000   37.2300   27.1800 H   0  0  0  0  0  0
   30.0700   38.6200   27.6700 H   0  0  0  0  0  0
   31.6200   40.2100   26.5200 H   0  0  0  0  0  0
   31.0700   38.9500   25.3700 H   0  0  0  0  0  0
   33.2100   37.6900   25.6700 H   0  0  0  0  0  0
   35.0700   38.6300   27.0600 H   0  0  0  0  0  0
   34.0400   40.0200   27.5400 H   0  0  0  0  0  0
   33.5200   37.0300   28.2000 H   0  0  0  0  0  0
   34.0700   38.2900   29.3600 H   0  0  0  0  0  0
   35.6600   35.1800   19.0100 O   0  0  0  0  0  0
   37.2600   38.0600   16.4500 C   0  0  0  0  0  0
   35.9100   37.7000   16.3500 C   0  0  0  0  0  0
   35.3700   36.7300   17.2100 C   0  0  0  0  0  0
   36.1900   36.1200   18.1700 C   0  0  0  0  0  0
   37.5400   36.4800   18.2800 C   0  0  0  0  0  0
   38.0800   37.4500   17.4200 C   0  0  0  0  0  0
   37.7700   38.9800   15.6300 F   0  0  0  0  0  0
   35.2700   38.1800   15.5900 H   0  0  0  0  0  0
   34.3100   36.4400   17.1200 H   0  0  0  0  0  0
   38.3100   35.9000   19.2000 F   0  0  0  0  0  0
   39.1400   37.7300   17.5000 H   0  0  0  0  0  0
  1  7  1  0  0  0
  1  9  2  0  0  0
  1 10  1  0  0  0
  2  8  1  0  0  0
  2 11  2  0  0  0
  2 12  1  0  0  0
  3  4  1  0  0  0
  3  5  2  0  0  0
  3  6  1  0  0  0
  4  7  2  0  0  0
  4 13  1  0  0  0
  5 10  1  0  0  0
  5 11  1  0  0  0
  6  8  2  0  0  0
  6 14  1  0  0  0
  7 43  1  0  0  0
 10 16  1  0  0  0
 12 15  1  0  0  0
 12 30  1  0  0  0
 16 17  1  0  0  0
 16 18  1  0  0  0
 16 19  1  0  0  0
 19 20  1  0  0  0
 19 22  1  0  0  0
 19 25  1  0  0  0
 20 21  1  0  0  0
 22 23  1  0  0  0
 22 24  1  0  0  0
 22 26  1  0  0  0
 26 27  1  0  0  0
 28 29  1  0  0  0
 28 33  1  0  0  0
 28 34  1  0  0  0
 28 35  1  0  0  0
 29 30  1  0  0  0
 29 36  1  0  0  0
 29 37  1  0  0  0
 30 31  1  0  0  0
 30 38  1  0  0  0
 31 32  1  0  0  0
 31 39  1  0  0  0
 31 40  1  0  0  0
 32 33  1  0  0  0
 32 41  1  0  0  0
 32 42  1  0  0  0
 43 47  1  0  0  0
 44 45  1  0  0  0
 44 49  2  0  0  0
 44 50  1  0  0  0
 45 46  2  0  0  0
 45 51  1  0  0  0
 46 47  1  0  0  0
 46 52  1  0  0  0
 47 48  2  0  0  0
 48 49  1  0  0  0
 48 53  1  0  0  0
 49 54  1  0  0  0
M  END
> <s_m_entry_id>
20

> <s_m_entry_name>
lig_p38a_2s.1

> <s_pdb_PDB_TITLE>
MX MODEL

> <i_pdb_PDB_Model>
1

> <r_pdb_PDB_CRYST1_a>
181.38

> <r_pdb_PDB_CRYST1_b>
172.16

> <r_pdb_PDB_CRYST1_c>
275.42

> <r_pdb_PDB_CRYST1_alpha>
90

> <r_pdb_PDB_CRYST1_beta>
90

> <r_pdb_PDB_CRYST1_gamma>
90

> <s_pdb_PDB_CRYST1_Space_Group>
P 1

> <i_pdb_PDB_CRYST1_z>
1

> <s_pdb_PDB_format_version>
3.0

> <s_m_Source_Path>
/users/home/dhahn3/projects/PLBenchmarks/PLBenchmarks/data/2019-12-09_p38/03_docked

> <s_m_Source_File>
lig_p38a_2s.pdb

> <i_m_Source_File_Index>
1

$$$$
