@<TRIPOS>MOLECULE
lig_p38a_2y
 45 47 0 0 0
SMALL
GASTEIGER
****
Structure written by MMmdl.
@<TRIPOS>ATOM
      1 C          34.5500   34.9800   21.1800 C.ar    1  LIG1        0.2951
      2 C          34.0400   38.9800   23.7400 C.ar    1  LIG1        0.2171
      3 C          34.8000   37.8100   21.4400 C.ar    1  LIG1        0.0394
      4 C          35.2500   37.1300   20.2300 C.ar    1  LIG1       -0.0018
      5 C          34.3100   37.0400   22.5100 C.ar    1  LIG1        0.1484
      6 C          34.8500   39.2100   21.6200 C.ar    1  LIG1        0.0419
      7 C          35.1700   35.7800   20.1300 C.ar    1  LIG1        0.1934
      8 C          33.6700   34.8300   23.4600 C.3     1  LIG1        0.0168
      9 N          34.4800   39.7900   22.7800 N.ar    1  LIG1       -0.2222
     10 O          34.3300   33.7800   21.0200 O.2     1  LIG1       -0.2636
     11 N          34.2100   35.6200   22.3400 N.ar    1  LIG1       -0.2928
     12 N          33.9300   37.6500   23.6600 N.ar    1  LIG1       -0.1964
     13 N          33.6700   39.5700   24.9300 N.pl3   1  LIG1       -0.3107
     14 H          35.7000   37.7400   19.4700 H       1  LIG1        0.0664
     15 H          35.2200   39.8600   20.8400 H       1  LIG1        0.0838
     16 H          33.3300   35.4800   24.2700 H       1  LIG1        0.0457
     17 H          32.8200   34.2400   23.1200 H       1  LIG1        0.0457
     18 H          34.3900   34.1500   23.9200 H       1  LIG1        0.0457
     19 H          33.7900   40.5700   24.9700 H       1  LIG1        0.1490
     20 C          33.1200   38.7100   26.0600 C.3     1  LIG1        0.0401
     21 H          32.0900   39.0000   26.2700 H       1  LIG1        0.0490
     22 H          33.1600   37.6600   25.7700 H       1  LIG1        0.0490
     23 C          33.9800   38.9300   27.3200 C.3     1  LIG1        0.0759
     24 C          33.4200   38.0600   28.4700 C.3     1  LIG1       -0.0349
     25 O          35.3100   38.5600   27.0600 O.3     1  LIG1       -0.3876
     26 C          33.9300   40.4100   27.7300 C.3     1  LIG1       -0.0349
     27 H          34.0300   38.2200   29.3700 H       1  LIG1        0.0258
     28 H          32.3900   38.3500   28.6800 H       1  LIG1        0.0258
     29 H          33.4600   37.0100   28.1900 H       1  LIG1        0.0258
     30 H          34.5300   40.5700   28.6300 H       1  LIG1        0.0258
     31 H          34.3200   41.0300   26.9200 H       1  LIG1        0.0258
     32 H          32.8900   40.7000   27.9300 H       1  LIG1        0.0258
     33 H          35.8400   38.7000   27.8500 H       1  LIG1        0.2102
     34 O          35.6600   35.1800   19.0100 O.3     1  LIG1       -0.4477
     35 C          37.2600   38.0600   16.4500 C.ar    1  LIG1        0.1264
     36 C          38.0700   37.4600   17.4300 C.ar    1  LIG1        0.0125
     37 C          37.5300   36.4900   18.2900 C.ar    1  LIG1        0.1681
     38 C          36.1900   36.1200   18.1700 C.ar    1  LIG1        0.1639
     39 C          35.3700   36.7200   17.2000 C.ar    1  LIG1       -0.0137
     40 C          35.9100   37.6900   16.3400 C.ar    1  LIG1       -0.0228
     41 F          37.7700   38.9800   15.6300 F       1  LIG1       -0.2054
     42 H          39.1300   37.7500   17.5200 H       1  LIG1        0.0676
     43 F          38.3100   35.9200   19.2100 F       1  LIG1       -0.2015
     44 H          34.3100   36.4300   17.1100 H       1  LIG1        0.0656
     45 H          35.2700   38.1600   15.5700 H       1  LIG1        0.0647
@<TRIPOS>BOND
     1     1     7   ar
     2     1    10    2
     3     1    11   ar
     4     2     9   ar
     5     2    12   ar
     6     2    13    1
     7     3     4   ar
     8     3     5   ar
     9     3     6   ar
    10     4     7   ar
    11     4    14    1
    12     5    11   ar
    13     5    12   ar
    14     6     9   ar
    15     6    15    1
    16     7    34    1
    17     8    11    1
    18     8    16    1
    19     8    17    1
    20     8    18    1
    21    13    19    1
    22    13    20    1
    23    20    21    1
    24    20    22    1
    25    20    23    1
    26    23    24    1
    27    23    25    1
    28    23    26    1
    29    24    27    1
    30    24    28    1
    31    24    29    1
    32    25    33    1
    33    26    30    1
    34    26    31    1
    35    26    32    1
    36    34    38    1
    37    35    36   ar
    38    35    40   ar
    39    35    41    1
    40    36    37   ar
    41    36    42    1
    42    37    38   ar
    43    37    43    1
    44    38    39   ar
    45    39    40   ar
    46    39    44    1
    47    40    45    1
