@<TRIPOS>MOLECULE
lig_p38a_2x
 43 46 0 0 0
SMALL
GASTEIGER
****
Structure written by MMmdl.
@<TRIPOS>ATOM
      1 C          34.5500   34.9800   21.1800 C.ar    1  LIG1        0.2951
      2 C          34.0400   38.9800   23.7400 C.ar    1  LIG1        0.2173
      3 C          34.8000   37.8100   21.4400 C.ar    1  LIG1        0.0394
      4 C          35.2500   37.1300   20.2300 C.ar    1  LIG1       -0.0018
      5 C          34.3100   37.0400   22.5100 C.ar    1  LIG1        0.1484
      6 C          34.8500   39.2100   21.6200 C.ar    1  LIG1        0.0419
      7 C          35.1700   35.7800   20.1300 C.ar    1  LIG1        0.1934
      8 C          33.6700   34.8300   23.4600 C.3     1  LIG1        0.0168
      9 N          34.4800   39.7900   22.7800 N.ar    1  LIG1       -0.2222
     10 O          34.3300   33.7800   21.0200 O.2     1  LIG1       -0.2636
     11 N          34.2100   35.6200   22.3400 N.ar    1  LIG1       -0.2928
     12 N          33.9300   37.6500   23.6600 N.ar    1  LIG1       -0.1964
     13 N          33.6700   39.5700   24.9300 N.pl3   1  LIG1       -0.3083
     14 H          35.7000   37.7400   19.4700 H       1  LIG1        0.0664
     15 H          35.2200   39.8600   20.8400 H       1  LIG1        0.0838
     16 H          33.4200   35.4700   24.3100 H       1  LIG1        0.0457
     17 H          32.7600   34.3200   23.1500 H       1  LIG1        0.0457
     18 H          34.3600   34.0800   23.8500 H       1  LIG1        0.0457
     19 H          33.7900   40.5700   24.9700 H       1  LIG1        0.1493
     20 C          33.1500   38.7500   26.0100 C.3     1  LIG1        0.0487
     21 C          31.7200   39.1700   26.3800 C.3     1  LIG1       -0.0088
     22 C          31.6400   38.8800   27.8800 C.3     1  LIG1        0.0495
     23 O          33.0100   39.3500   28.3900 O.3     1  LIG1       -0.3779
     24 C          33.9800   38.8900   27.3000 C.3     1  LIG1        0.0661
     25 H          33.1600   37.6900   25.6600 H       1  LIG1        0.0522
     26 H          30.9400   38.6200   25.8000 H       1  LIG1        0.0306
     27 H          31.5900   40.2600   26.2100 H       1  LIG1        0.0306
     28 H          30.7900   39.4000   28.3800 H       1  LIG1        0.0560
     29 H          31.5300   37.7800   28.0600 H       1  LIG1        0.0560
     30 H          34.4200   37.8900   27.5700 H       1  LIG1        0.0578
     31 H          34.8300   39.6000   27.1800 H       1  LIG1        0.0578
     32 O          35.6600   35.1800   19.0100 O.3     1  LIG1       -0.4477
     33 C          37.2600   38.0600   16.4500 C.ar    1  LIG1        0.1264
     34 C          38.0600   37.4800   17.4500 C.ar    1  LIG1        0.0125
     35 C          37.5200   36.5100   18.3100 C.ar    1  LIG1        0.1681
     36 C          36.1900   36.1200   18.1700 C.ar    1  LIG1        0.1639
     37 C          35.3800   36.6900   17.1700 C.ar    1  LIG1       -0.0137
     38 C          35.9200   37.6600   16.3100 C.ar    1  LIG1       -0.0228
     39 F          37.7700   38.9800   15.6300 F       1  LIG1       -0.2054
     40 H          39.1200   37.8000   17.5600 H       1  LIG1        0.0676
     41 F          38.2900   35.9700   19.2600 F       1  LIG1       -0.2015
     42 H          34.3300   36.3800   17.0600 H       1  LIG1        0.0656
     43 H          35.2900   38.1100   15.5300 H       1  LIG1        0.0647
@<TRIPOS>BOND
     1     1     7   ar
     2     1    10    2
     3     1    11   ar
     4     2     9   ar
     5     2    12   ar
     6     2    13    1
     7     3     4   ar
     8     3     5   ar
     9     3     6   ar
    10     4     7   ar
    11     4    14    1
    12     5    11   ar
    13     5    12   ar
    14     6     9   ar
    15     6    15    1
    16     7    32    1
    17     8    11    1
    18     8    16    1
    19     8    17    1
    20     8    18    1
    21    13    19    1
    22    13    20    1
    23    20    21    1
    24    20    24    1
    25    20    25    1
    26    21    22    1
    27    21    26    1
    28    21    27    1
    29    22    23    1
    30    22    28    1
    31    22    29    1
    32    23    24    1
    33    24    30    1
    34    24    31    1
    35    32    36    1
    36    33    34   ar
    37    33    38   ar
    38    33    39    1
    39    34    35   ar
    40    34    40    1
    41    35    36   ar
    42    35    41    1
    43    36    37   ar
    44    37    38   ar
    45    37    42    1
    46    38    43    1
