lig_p38a_2h
                    3D
 Structure written by MMmdl.
 46 49  0  0  1  0            999 V2000
   34.5500   34.9800   21.1800 C   0  0  0  0  0  0
   34.0400   38.9800   23.7400 C   0  0  0  0  0  0
   34.8000   37.8100   21.4400 C   0  0  0  0  0  0
   35.2500   37.1300   20.2300 C   0  0  0  0  0  0
   34.3100   37.0400   22.5100 C   0  0  0  0  0  0
   34.8500   39.2100   21.6200 C   0  0  0  0  0  0
   35.1700   35.7800   20.1300 C   0  0  0  0  0  0
   33.6700   34.8300   23.4600 C   0  0  0  0  0  0
   34.4800   39.7900   22.7800 N   0  0  0  0  0  0
   34.3300   33.7800   21.0200 O   0  0  0  0  0  0
   34.2100   35.6200   22.3400 N   0  0  0  0  0  0
   33.9300   37.6500   23.6600 N   0  0  0  0  0  0
   33.6700   39.5700   24.9300 N   0  0  0  0  0  0
   35.7000   37.7400   19.4700 H   0  0  0  0  0  0
   35.2200   39.8600   20.8400 H   0  0  0  0  0  0
   33.4100   35.4700   24.3100 H   0  0  0  0  0  0
   32.7600   34.3100   23.1500 H   0  0  0  0  0  0
   34.3600   34.0900   23.8600 H   0  0  0  0  0  0
   33.7900   40.5700   24.9700 H   0  0  0  0  0  0
   31.1500   38.3500   27.5000 C   0  0  0  0  0  0
   31.7100   39.1700   26.3300 C   0  0  0  0  0  0
   33.1500   38.7500   26.0100 C   0  0  0  0  0  0
   34.0500   38.8900   27.2500 C   0  0  0  0  0  0
   33.4900   38.0700   28.4200 C   0  0  0  0  0  0
   32.0400   38.4900   28.7400 O   0  0  0  0  0  0
   31.0800   37.2700   27.2100 H   0  0  0  0  0  0
   30.1100   38.6900   27.7400 H   0  0  0  0  0  0
   31.6800   40.2500   26.5800 H   0  0  0  0  0  0
   31.0600   39.0300   25.4200 H   0  0  0  0  0  0
   33.1700   37.6900   25.6500 H   0  0  0  0  0  0
   35.0900   38.5500   27.0100 H   0  0  0  0  0  0
   34.1100   39.9700   27.5400 H   0  0  0  0  0  0
   33.5200   36.9900   28.1700 H   0  0  0  0  0  0
   34.1300   38.2100   29.3300 H   0  0  0  0  0  0
   35.7900   35.0200   18.7200 S   0  0  0  0  0  0
   37.5300   38.1500   15.9400 C   0  0  0  0  0  0
   36.1700   37.7900   15.8400 C   0  0  0  0  0  0
   35.6300   36.8200   16.7000 C   0  0  0  0  0  0
   36.4500   36.2000   17.6600 C   0  0  0  0  0  0
   37.8100   36.5500   17.7600 C   0  0  0  0  0  0
   38.3500   37.5300   16.9000 C   0  0  0  0  0  0
   37.9500   38.9100   15.2700 H   0  0  0  0  0  0
   35.5300   38.2800   15.0900 H   0  0  0  0  0  0
   34.5700   36.5500   16.6300 H   0  0  0  0  0  0
   38.5800   35.9700   18.6700 F   0  0  0  0  0  0
   39.4100   37.8000   16.9800 H   0  0  0  0  0  0
  1  7  1  0  0  0
  1 10  2  0  0  0
  1 11  1  0  0  0
  2  9  1  0  0  0
  2 12  2  0  0  0
  2 13  1  0  0  0
  3  4  1  0  0  0
  3  5  2  0  0  0
  3  6  1  0  0  0
  4  7  2  0  0  0
  4 14  1  0  0  0
  5 11  1  0  0  0
  5 12  1  0  0  0
  6  9  2  0  0  0
  6 15  1  0  0  0
  7 35  1  0  0  0
  8 11  1  0  0  0
  8 16  1  0  0  0
  8 17  1  0  0  0
  8 18  1  0  0  0
 13 19  1  0  0  0
 13 22  1  0  0  0
 20 21  1  0  0  0
 20 25  1  0  0  0
 20 26  1  0  0  0
 20 27  1  0  0  0
 21 22  1  0  0  0
 21 28  1  0  0  0
 21 29  1  0  0  0
 22 23  1  0  0  0
 22 30  1  0  0  0
 23 24  1  0  0  0
 23 31  1  0  0  0
 23 32  1  0  0  0
 24 25  1  0  0  0
 24 33  1  0  0  0
 24 34  1  0  0  0
 35 39  1  0  0  0
 36 37  1  0  0  0
 36 41  2  0  0  0
 36 42  1  0  0  0
 37 38  2  0  0  0
 37 43  1  0  0  0
 38 39  1  0  0  0
 38 44  1  0  0  0
 39 40  2  0  0  0
 40 41  1  0  0  0
 40 45  1  0  0  0
 41 46  1  0  0  0
M  END
> <s_m_entry_id>
9

> <s_m_entry_name>
lig_p38a_2h.1

> <s_pdb_PDB_TITLE>
MX MODEL

> <i_pdb_PDB_Model>
1

> <r_pdb_PDB_CRYST1_a>
186.08

> <r_pdb_PDB_CRYST1_b>
135.86

> <r_pdb_PDB_CRYST1_c>
284.72

> <r_pdb_PDB_CRYST1_alpha>
90

> <r_pdb_PDB_CRYST1_beta>
90

> <r_pdb_PDB_CRYST1_gamma>
90

> <s_pdb_PDB_CRYST1_Space_Group>
P 1

> <i_pdb_PDB_CRYST1_z>
1

> <s_pdb_PDB_format_version>
3.0

> <s_m_Source_Path>
/users/home/dhahn3/projects/PLBenchmarks/PLBenchmarks/data/2019-12-09_p38/03_docked

> <s_m_Source_File>
lig_p38a_2h.pdb

> <i_m_Source_File_Index>
1

$$$$
