# Molecule written by the XED library from Cresset
@<TRIPOS>MOLECULE
CatS_132
    91     96      1
SMALL
USER_CHARGES
@<TRIPOS>ATOM
      1  C1        -13.4829    9.5012  -11.5160 C.ar      1 MOL1       -0.0896
      2  C2        -12.2090    9.2410  -10.8969 C.ar      1 MOL1       -0.1563
      3  C3        -11.2200    9.2620  -11.7781 C.ar      1 MOL1        0.1579
      4  S1        -11.7380    9.5969  -13.4469 S.3       1 MOL1       -0.1057
      5  C4        -13.4082    9.7040  -12.8171 C.ar      1 MOL1       -0.0965
      6  N1         -9.8630    9.0500  -11.5120 N.am      1 MOL1       -0.1989
      7  C5         -9.3049    8.7550  -10.3119 C.2       1 MOL1        0.4238
      8  O1         -9.7859    7.8669   -9.6020 O.2       1 MOL1       -0.4504
      9  N2         -8.2079    9.4440   -9.9020 N.am      1 MOL1       -0.4011
     10  C6         -7.4450   10.3310  -10.8179 C.3       1 MOL1        0.0808
     11  C7         -6.2850   11.1671  -10.2170 C.3       1 MOL1       -0.0166
     12  C8         -5.6529   10.5089   -9.0040 C.ar      1 MOL1        0.0571
     13  C9         -6.3350    9.6581   -8.2369 C.ar      1 MOL1       -0.0691
     14  C10        -5.4021    9.2751   -7.2470 C.ar      1 MOL1        0.0391
     15  N3         -4.2700    9.9020   -7.4871 N.2       1 MOL1       -0.2943
     16  N4         -4.3771   10.6969   -8.5740 N.pl3     1 MOL1       -0.0670
     17  C11        -3.2631   11.4760   -9.1329 C.3       1 MOL1        0.0979
     18  C12        -3.1050   12.9480   -8.7061 C.3       1 MOL1        0.0191
     19  C13        -2.5421   12.9819   -7.2689 C.3       1 MOL1       -0.0328
     20  N5         -2.1659   14.3320   -6.8128 N.4       1 MOL1       -0.2283
     21  C14        -1.2891   14.9890   -7.8051 C.3       1 MOL1       -0.0630
     22  C15        -0.8660   16.3859   -7.3549 C.3       1 MOL1       -0.0834
     23  C16        -0.2000   16.3250   -5.9869 C.3       1 MOL1       -0.0872
     24  C17        -1.1109   15.6271   -4.9930 C.3       1 MOL1       -0.0834
     25  C18        -1.4920   14.2490   -5.5140 C.3       1 MOL1       -0.0630
     26  O2         -4.3659   13.6301   -8.7570 O.3       1 MOL1       -0.4408
     27  C19        -5.5689    8.3379   -6.1490 C.ar      1 MOL1       -0.0066
     28  C20        -4.5441    7.5111   -5.7250 C.ar      1 MOL1       -0.0846
     29  C21        -4.7188    6.6681   -4.6559 C.ar      1 MOL1       -0.0687
     30  C22        -5.9120    6.6130   -3.9661 C.ar      1 MOL1        0.0171
     31  C23        -6.9491    7.4239   -4.4109 C.ar      1 MOL1        0.0480
     32  C24        -6.7791    8.2670   -5.4859 C.ar      1 MOL1       -0.0655
     33  S2         -8.5591    7.4501   -3.6120 S.3       1 MOL1       -0.1783
     34  C25        -9.1129    9.1729   -3.5550 C.3       1 MOL1       -0.0087
     35  C26        -7.9820   10.0490   -2.9750 C.3       1 MOL1       -0.0441
     36  N6         -8.4780   11.0148   -1.9811 N.4       1 MOL1       -0.2284
     37  C27        -9.7560   11.5929   -2.3940 C.3       1 MOL1       -0.0566
     38  C28       -10.2959   12.5339   -1.3211 C.3       1 MOL1       -0.0467
     39  C29        -9.3141   13.6500   -0.9940 C.3       1 MOL1        0.0498
     40  C30        -7.9470   13.0561   -0.7089 C.3       1 MOL1       -0.0467
     41  C31        -7.5039   12.0921   -1.8020 C.3       1 MOL1       -0.0566
     42  C32        -5.9119    5.6340   -2.7909 C.3       1 MOL1        0.4149
     43  F2         -5.7481    6.3180   -1.5931 F         1 MOL1       -0.1514
     44  F3         -7.1140    4.9351   -2.6920 F         1 MOL1       -0.1514
     45  F4         -4.9140    4.6689   -2.8610 F         1 MOL1       -0.1514
     46  C33        -7.7791    9.2601   -8.5001 C.3       1 MOL1        0.1152
     47  H36        -9.6931   14.2309   -0.0150 F         1 MOL1       -0.2169
     48  F1         -9.2400   14.5401   -2.0591 H         1 MOL1        0.0735
     49  H1         -2.3571   13.4950   -9.4649 H         1 MOL1        0.0680
     50  H2        -14.3430    9.5249  -11.0071 H         1 MOL1        0.0920
     51  H3        -12.0870    9.0660   -9.9200 H         1 MOL1        0.0934
     52  H4        -14.2039    9.8980  -13.3920 H         1 MOL1        0.0957
     53  H5         -9.3279    9.1181  -12.2021 H         1 MOL1        0.2070
     54  H6         -6.9640    9.6261  -11.6641 H         1 MOL1        0.0595
     55  H7         -8.1960   11.1090  -11.3412 H         1 MOL1        0.0595
     56  H8         -6.7100   12.2310   -9.8610 H         1 MOL1        0.0516
     57  H9         -5.4519   11.3440  -11.0630 H         1 MOL1        0.0516
     58  H10        -3.3339   11.4421  -10.3309 H         1 MOL1        0.0624
     59  H11        -2.2641   10.8931   -8.8109 H         1 MOL1        0.0624
     60  H12        -3.4260   12.5611   -6.5740 H         1 MOL1        0.0549
     61  H13        -1.6080   12.2349   -7.1678 H         1 MOL1        0.0549
     62  H14        -1.8190   15.0879   -8.8760 H         1 MOL1        0.0529
     63  H15        -0.3039   14.3160   -7.9440 H         1 MOL1        0.0529
     64  H16        -0.1081   16.8480   -8.1621 H         1 MOL1        0.0467
     65  H17        -1.8279   17.1000   -7.2830 H         1 MOL1        0.0467
     66  H18         0.8481   15.7460   -6.0749 H         1 MOL1        0.0460
     67  H19        -0.0010   17.4409   -5.5950 H         1 MOL1        0.0460
     68  H20        -0.5009   15.5199   -3.9650 H         1 MOL1        0.0467
     69  H21        -2.0899   16.2929   -4.7931 H         1 MOL1        0.0467
     70  H22        -2.2281   13.7131   -4.7320 H         1 MOL1        0.0529
     71  H23        -0.4890   13.5930   -5.5970 H         1 MOL1        0.0529
     72  H24        -4.2719   14.5951   -8.4901 H         1 MOL1        0.3291
     73  H25        -3.6650    7.5281   -6.1980 H         1 MOL1        0.0910
     74  H26        -3.9600    6.0840   -4.3691 H         1 MOL1        0.0908
     75  H27        -7.5380    8.8470   -5.7830 H         1 MOL1        0.0929
     76  H28       -10.0862    9.2550   -2.8580 H         1 MOL1        0.0553
     77  H29        -9.4180    9.5390   -4.6560 H         1 MOL1        0.0553
     78  H30        -7.4120   10.6329   -3.8550 H         1 MOL1        0.0547
     79  H31        -7.1899    9.3109   -2.4541 H         1 MOL1        0.0547
     80  H32        -9.5791   12.2060   -3.4120 H         1 MOL1        0.0529
     81  H33       -10.5792   10.7479   -2.6160 H         1 MOL1        0.0529
     82  H34       -10.5000   11.9221   -0.3080 H         1 MOL1        0.0497
     83  H35       -11.3351   13.0029   -1.6999 H         1 MOL1        0.0497
     84  H37        -7.9510   12.4901    0.3499 H         1 MOL1        0.0497
     85  H38        -7.1639   13.9650   -0.6609 H         1 MOL1        0.0497
     86  H39        -6.4459   11.6090   -1.5060 H         1 MOL1        0.0529
     87  H40        -7.3620   12.7151   -2.8200 H         1 MOL1        0.0529
     88  H41        -7.9050    8.0910   -8.2590 H         1 MOL1        0.0622
     89  H42        -8.4988    9.8929   -7.7791 H         1 MOL1        0.0622
     90  H          -2.9236   14.8337   -6.7323 H         1 MOL1        0.1921
     91  H          -8.6083   10.5784   -1.1905 H         1 MOL1        0.1921
@<TRIPOS>BOND
     1      1      2 ar
     2      1      5 ar
     3      2      3 ar
     4      3      4 ar
     5      3      6 1 
     6      4      5 ar
     7      6      7 am
     8      7      8 2 
     9      7      9 am
    10      9     10 1 
    11      9     46 1 
    12     10     11 1 
    13     11     12 1 
    14     12     13 ar
    15     12     16 ar
    16     13     14 ar
    17     13     46 1 
    18     14     15 ar
    19     14     27 1 
    20     15     16 ar
    21     16     17 1 
    22     17     18 1 
    23     18     19 1 
    24     18     26 1 
    25     19     20 1 
    26     20     21 1 
    27     20     25 1 
    28     21     22 1 
    29     22     23 1 
    30     23     24 1 
    31     24     25 1 
    32     27     28 ar
    33     27     32 ar
    34     28     29 ar
    35     29     30 ar
    36     30     31 ar
    37     30     42 1 
    38     31     32 ar
    39     31     33 1 
    40     33     34 1 
    41     34     35 1 
    42     35     36 1 
    43     36     37 1 
    44     36     41 1 
    45     37     38 1 
    46     38     39 1 
    47     39     40 1 
    48     39     47 1 
    49     40     41 1 
    50     42     43 1 
    51     42     44 1 
    52     42     45 1 
    53      1     50 1 
    54      2     51 1 
    55      5     52 1 
    56      6     53 1 
    57     10     54 1 
    58     10     55 1 
    59     11     56 1 
    60     11     57 1 
    61     17     58 1 
    62     17     59 1 
    63     18     49 1 
    64     19     60 1 
    65     19     61 1 
    66     20     90 1 
    67     21     62 1 
    68     21     63 1 
    69     22     64 1 
    70     22     65 1 
    71     23     66 1 
    72     23     67 1 
    73     24     68 1 
    74     24     69 1 
    75     25     70 1 
    76     25     71 1 
    77     26     72 1 
    78     28     73 1 
    79     29     74 1 
    80     32     75 1 
    81     34     76 1 
    82     34     77 1 
    83     35     78 1 
    84     35     79 1 
    85     36     91 1 
    86     37     80 1 
    87     37     81 1 
    88     38     82 1 
    89     38     83 1 
    90     39     48 1 
    91     40     84 1 
    92     40     85 1 
    93     41     86 1 
    94     41     87 1 
    95     46     88 1 
    96     46     89 1 
@<TRIPOS>SUBSTRUCTURE
     1 MOL1         1 MOLECULE          1 A
