# Molecule written by the XED library from Cresset
@<TRIPOS>MOLECULE
CatS_253
    90     94      1
SMALL
USER_CHARGES
@<TRIPOS>ATOM
      1  C4         -0.1246   16.1701   -5.7828 C.3       1 MOL1       -0.0872
      2  C5         -1.1909   15.5857   -4.8380 C.3       1 MOL1       -0.0834
      3  C6         -1.6666   14.2211   -5.3740 C.3       1 MOL1       -0.0630
      4  N2         -2.2338   14.3439   -6.7311 N.4       1 MOL1       -0.2283
      5  C7         -1.2230   14.8907   -7.6590 C.3       1 MOL1       -0.0630
      6  C8         -0.7223   16.2750   -7.1988 C.3       1 MOL1       -0.0834
      7  C9         -2.7051   13.0260   -7.1970 C.3       1 MOL1       -0.0328
      8  C10        -3.4127   13.0568   -8.5710 C.3       1 MOL1        0.0191
      9  C11        -3.3395   11.6547   -9.1997 C.3       1 MOL1        0.0979
     10  N3         -4.3388   10.6960   -8.7086 N.pl3     1 MOL1       -0.0670
     11  C12        -5.5308   10.3252   -9.2411 C.ar      1 MOL1        0.0572
     12  C13        -6.2052    9.4822   -8.4580 C.ar      1 MOL1       -0.0684
     13  C14        -5.3401    9.2806   -7.3580 C.ar      1 MOL1        0.0392
     14  N4         -4.2645   10.0229   -7.5357 N.2       1 MOL1       -0.2943
     15  C15        -5.5280    8.4129   -6.2061 C.ar      1 MOL1       -0.0066
     16  C16        -4.4679    7.7391   -5.6283 C.ar      1 MOL1       -0.0846
     17  C17        -4.6601    6.9417   -4.5282 C.ar      1 MOL1       -0.0687
     18  C18        -5.9100    6.7698   -3.9695 C.ar      1 MOL1        0.0171
     19  C19        -6.9759    7.4402   -4.5579 C.ar      1 MOL1        0.0480
     20  C20        -6.7839    8.2538   -5.6507 C.ar      1 MOL1       -0.0655
     21  S1         -8.6622    7.2889   -3.9530 S.3       1 MOL1       -0.1783
     22  C21        -9.2127    8.9474   -3.4725 C.3       1 MOL1       -0.0087
     23  C22        -8.0198    9.8151   -3.0208 C.3       1 MOL1       -0.0441
     24  N5         -8.4068   10.8678   -2.0653 N.4       1 MOL1       -0.2286
     25  C23        -9.7687   11.3439   -2.3741 C.3       1 MOL1       -0.0615
     26  C24       -10.2313   12.4113   -1.3620 C.3       1 MOL1       -0.0680
     27  C25        -9.2439   13.5919   -1.3596 C.3       1 MOL1        0.0119
     28  C26        -7.8203   13.0744   -1.0855 C.3       1 MOL1       -0.0680
     29  C27        -7.4531   11.9949   -2.1229 C.3       1 MOL1       -0.0615
     30  C28        -5.9447    5.8566   -2.7420 C.3       1 MOL1        0.4149
     31  F1         -4.9474    4.8880   -2.7812 F         1 MOL1       -0.1514
     32  F2         -7.1420    5.1657   -2.5930 F         1 MOL1       -0.1514
     33  F3         -5.7380    6.5907   -1.5777 F         1 MOL1       -0.1514
     34  C29        -7.5838    8.9490   -8.8239 C.3       1 MOL1        0.1169
     35  N6         -8.2562    9.7459   -9.8750 N.3       1 MOL1       -0.4606
     36  C30        -7.3183    9.9449  -11.0008 C.3       1 MOL1        0.0844
     37  C31        -6.0941   10.7932  -10.5730 C.3       1 MOL1       -0.0158
     38  S2         -9.7911    9.3098  -10.1695 S.3       1 MOL1        0.4316
     39  O3         -9.8661    7.9421   -9.7665 O.2       1 MOL1       -0.3139
     40  O4        -10.0689    9.5800  -11.5448 O.2       1 MOL1       -0.3139
     41  C32       -10.9190   10.2892   -9.1307 C.3       1 MOL1        0.0421
     42  H33        -9.5603   14.3842   -0.5173 C.2       1 MOL1        0.2935
     43  H         -10.6681   14.8130   -0.7015 N.am      1 MOL1       -0.3759
     44  H          -8.8303   15.3387   -0.5348 O.2       1 MOL1       -0.4209
     45  H18        -4.5660   13.3633   -8.4238 O.3       1 MOL1       -0.4408
     46  H19        -2.8849   13.8325   -9.3196 H         1 MOL1        0.0680
     47  H7          0.8140   15.4253   -5.8330 H         1 MOL1        0.0460
     48  H8         -0.7250   15.4544   -3.7390 H         1 MOL1        0.0467
     49  H9         -2.1307   16.3301   -4.7863 H         1 MOL1        0.0467
     50  H10        -2.5058   13.8240   -4.6131 H         1 MOL1        0.0529
     51  H11        -0.7430   13.4539   -5.3880 H         1 MOL1        0.0529
     52  H12        -1.7000   15.0320   -8.7494 H         1 MOL1        0.0529
     53  H13        -0.2799   14.1496   -7.7231 H         1 MOL1        0.0529
     54  H14         0.1174   16.6711   -7.9590 H         1 MOL1        0.0467
     55  H15        -1.6448   17.0420   -7.1908 H         1 MOL1        0.0467
     56  H16        -3.5300   12.6211   -6.4255 H         1 MOL1        0.0549
     57  H17        -1.8130   12.2240   -7.2249 H         1 MOL1        0.0549
     58  H20        -3.4750   11.7688  -10.3871 H         1 MOL1        0.0624
     59  H21        -2.2548   11.1930   -8.9841 H         1 MOL1        0.0624
     60  H22        -3.5488    7.8380   -6.0088 H         1 MOL1        0.0910
     61  H23        -3.8720    6.4760   -4.1251 H         1 MOL1        0.0908
     62  H24        -7.5648    8.7321   -6.0519 H         1 MOL1        0.0929
     63  H25        -9.7312    9.4499   -4.4319 H         1 MOL1        0.0553
     64  H26       -10.0246    8.8692   -2.5917 H         1 MOL1        0.0553
     65  H27        -7.5949   10.3441   -4.0118 H         1 MOL1        0.0547
     66  H28        -7.1414    9.1331   -2.5672 H         1 MOL1        0.0547
     67  H29       -10.5488   10.4349   -2.3164 H         1 MOL1        0.0528
     68  H30        -9.7884   11.8009   -3.4839 H         1 MOL1        0.0528
     69  H31       -10.2650   11.9165   -0.2699 H         1 MOL1        0.0472
     70  H32       -11.3259   12.8009   -1.6602 H         1 MOL1        0.0472
     71  H35        -7.0419   13.9841   -1.1569 H         1 MOL1        0.0472
     72  H36        -7.7743   12.5992    0.0151 H         1 MOL1        0.0472
     73  H37        -7.4588   12.4816   -3.2210 H         1 MOL1        0.0528
     74  H38        -6.3402   11.6218   -1.8749 H         1 MOL1        0.0528
     75  H39        -7.4863    7.8080   -9.1819 H         1 MOL1        0.0628
     76  H40        -8.2800    8.9948   -7.8461 H         1 MOL1        0.0628
     77  H41        -6.9426    8.8781  -11.4009 H         1 MOL1        0.0601
     78  H42        -7.8696   10.5228  -11.8951 H         1 MOL1        0.0601
     79  H43        -6.4275   11.9414  -10.4688 H         1 MOL1        0.0516
     80  H44        -5.2557   10.6982  -11.4258 H         1 MOL1        0.0516
     81  H45       -11.0141   11.4133   -9.5426 H         1 MOL1        0.0588
     82  H46       -12.0132    9.7990   -9.1412 H         1 MOL1        0.0588
     83  H47       -10.5204   10.3165   -7.9993 H         1 MOL1        0.0588
     84  H           0.2257   17.2511   -5.3977 H         1 MOL1        0.0460
     85  H          -9.2594   14.0936   -2.4521 H         1 MOL1        0.0553
     86  H         -11.3835   14.3158   -0.6902 H         1 MOL1        0.2025
     87  H         -10.7876   15.6862   -0.7438 H         1 MOL1        0.2025
     88  H          -2.9457   14.9135   -6.7056 H         1 MOL1        0.1921
     89  H          -8.4051   10.5164   -1.2237 H         1 MOL1        0.1920
     90  H          -5.0712   13.3141   -9.2923 H         1 MOL1        0.3291
@<TRIPOS>BOND
     1      1      2 1 
     2      1      6 1 
     3      2      3 1 
     4      3      4 1 
     5      4      5 1 
     6      4      7 1 
     7      5      6 1 
     8      7      8 1 
     9      8      9 1 
    10      8     45 1 
    11      9     10 1 
    12     10     11 ar
    13     10     14 ar
    14     11     12 ar
    15     11     37 1 
    16     12     13 ar
    17     12     34 1 
    18     13     14 ar
    19     13     15 1 
    20     15     16 ar
    21     15     20 ar
    22     16     17 ar
    23     17     18 ar
    24     18     19 ar
    25     18     30 1 
    26     19     20 ar
    27     19     21 1 
    28     21     22 1 
    29     22     23 1 
    30     23     24 1 
    31     24     25 1 
    32     24     29 1 
    33     25     26 1 
    34     26     27 1 
    35     27     28 1 
    36     27     42 1 
    37     28     29 1 
    38     30     31 1 
    39     30     32 1 
    40     30     33 1 
    41     34     35 1 
    42     35     36 1 
    43     35     38 1 
    44     36     37 1 
    45     38     39 2 
    46     38     40 2 
    47     38     41 1 
    48     43     42 am
    49     44     42 2 
    50      1     47 1 
    51      2     48 1 
    52      2     49 1 
    53      3     50 1 
    54      3     51 1 
    55      5     52 1 
    56      5     53 1 
    57      6     54 1 
    58      6     55 1 
    59      7     56 1 
    60      7     57 1 
    61      8     46 1 
    62      9     58 1 
    63      9     59 1 
    64     16     60 1 
    65     17     61 1 
    66     20     62 1 
    67     22     63 1 
    68     22     64 1 
    69     23     65 1 
    70     23     66 1 
    71     25     67 1 
    72     25     68 1 
    73     26     69 1 
    74     26     70 1 
    75     28     71 1 
    76     28     72 1 
    77     29     73 1 
    78     29     74 1 
    79     34     75 1 
    80     34     76 1 
    81     36     77 1 
    82     36     78 1 
    83     37     79 1 
    84     37     80 1 
    85     41     81 1 
    86     41     82 1 
    87     41     83 1 
    88     45     90 1 
    89     84      1 1 
    90     85     27 1 
    91     86     43 1 
    92     87     43 1 
    93     88      4 1 
    94     89     24 1 
@<TRIPOS>SUBSTRUCTURE
     1 MOL1         1 MOLECULE          1 A
