CatS_253
 OpenBabel05281909343D

 90 94  0  0  1  0  0  0  0  0999 V2000
   -0.1246   16.1701   -5.7828 C   0  0  0  0  0  0  0  0  0  0  0  0
   -1.1909   15.5857   -4.8380 C   0  0  0  0  0  0  0  0  0  0  0  0
   -1.6666   14.2211   -5.3740 C   0  0  0  0  0  0  0  0  0  0  0  0
   -2.2338   14.3439   -6.7311 N   0  3  0  0  0  0  0  0  0  0  0  0
   -1.2230   14.8907   -7.6590 C   0  0  0  0  0  0  0  0  0  0  0  0
   -0.7223   16.2750   -7.1988 C   0  0  0  0  0  0  0  0  0  0  0  0
   -2.7051   13.0260   -7.1970 C   0  0  0  0  0  0  0  0  0  0  0  0
   -3.4127   13.0568   -8.5710 C   0  0  1  0  0  0  0  0  0  0  0  0
   -3.3395   11.6547   -9.1997 C   0  0  0  0  0  0  0  0  0  0  0  0
   -4.3388   10.6960   -8.7086 N   0  0  0  0  0  0  0  0  0  0  0  0
   -5.5308   10.3252   -9.2411 C   0  0  0  0  0  0  0  0  0  0  0  0
   -6.2052    9.4822   -8.4580 C   0  0  0  0  0  0  0  0  0  0  0  0
   -5.3401    9.2806   -7.3580 C   0  0  0  0  0  0  0  0  0  0  0  0
   -4.2645   10.0229   -7.5357 N   0  0  0  0  0  0  0  0  0  0  0  0
   -5.5280    8.4129   -6.2061 C   0  0  0  0  0  0  0  0  0  0  0  0
   -4.4679    7.7391   -5.6283 C   0  0  0  0  0  0  0  0  0  0  0  0
   -4.6601    6.9417   -4.5282 C   0  0  0  0  0  0  0  0  0  0  0  0
   -5.9100    6.7698   -3.9695 C   0  0  0  0  0  0  0  0  0  0  0  0
   -6.9759    7.4402   -4.5579 C   0  0  0  0  0  0  0  0  0  0  0  0
   -6.7839    8.2538   -5.6507 C   0  0  0  0  0  0  0  0  0  0  0  0
   -8.6622    7.2889   -3.9530 S   0  0  0  0  0  0  0  0  0  0  0  0
   -9.2127    8.9474   -3.4725 C   0  0  0  0  0  0  0  0  0  0  0  0
   -8.0198    9.8151   -3.0208 C   0  0  0  0  0  0  0  0  0  0  0  0
   -8.4068   10.8678   -2.0653 N   0  3  2  0  0  0  0  0  0  0  0  0
   -9.7687   11.3439   -2.3741 C   0  0  0  0  0  0  0  0  0  0  0  0
  -10.2313   12.4113   -1.3620 C   0  0  0  0  0  0  0  0  0  0  0  0
   -9.2439   13.5919   -1.3596 C   0  0  2  0  0  0  0  0  0  0  0  0
   -7.8203   13.0744   -1.0855 C   0  0  0  0  0  0  0  0  0  0  0  0
   -7.4531   11.9949   -2.1229 C   0  0  0  0  0  0  0  0  0  0  0  0
   -5.9447    5.8566   -2.7420 C   0  0  0  0  0  0  0  0  0  0  0  0
   -4.9474    4.8880   -2.7812 F   0  0  0  0  0  0  0  0  0  0  0  0
   -7.1420    5.1657   -2.5930 F   0  0  0  0  0  0  0  0  0  0  0  0
   -5.7380    6.5907   -1.5777 F   0  0  0  0  0  0  0  0  0  0  0  0
   -7.5838    8.9490   -8.8239 C   0  0  0  0  0  0  0  0  0  0  0  0
   -8.2562    9.7459   -9.8750 N   0  0  0  0  0  0  0  0  0  0  0  0
   -7.3183    9.9449  -11.0008 C   0  0  0  0  0  0  0  0  0  0  0  0
   -6.0941   10.7932  -10.5730 C   0  0  0  0  0  0  0  0  0  0  0  0
   -9.7911    9.3098  -10.1695 S   0  0  0  0  0  0  0  0  0  0  0  0
   -9.8661    7.9421   -9.7665 O   0  0  0  0  0  0  0  0  0  0  0  0
  -10.0689    9.5800  -11.5448 O   0  0  0  0  0  0  0  0  0  0  0  0
  -10.9190   10.2892   -9.1307 C   0  0  0  0  0  0  0  0  0  0  0  0
   -9.5603   14.3842   -0.5173 C   0  0  0  0  0  0  0  0  0  0  0  0
  -10.6681   14.8130   -0.7015 N   0  0  0  0  0  0  0  0  0  0  0  0
   -8.8303   15.3387   -0.5348 O   0  0  0  0  0  0  0  0  0  0  0  0
   -4.5660   13.3633   -8.4238 O   0  0  0  0  0  0  0  0  0  0  0  0
   -2.8849   13.8325   -9.3196 H   0  0  0  0  0  0  0  0  0  0  0  0
    0.8140   15.4253   -5.8330 H   0  0  0  0  0  0  0  0  0  0  0  0
   -0.7250   15.4544   -3.7390 H   0  0  0  0  0  0  0  0  0  0  0  0
   -2.1307   16.3301   -4.7863 H   0  0  0  0  0  0  0  0  0  0  0  0
   -2.5058   13.8240   -4.6131 H   0  0  0  0  0  0  0  0  0  0  0  0
   -0.7430   13.4539   -5.3880 H   0  0  0  0  0  0  0  0  0  0  0  0
   -1.7000   15.0320   -8.7494 H   0  0  0  0  0  0  0  0  0  0  0  0
   -0.2799   14.1496   -7.7231 H   0  0  0  0  0  0  0  0  0  0  0  0
    0.1174   16.6711   -7.9590 H   0  0  0  0  0  0  0  0  0  0  0  0
   -1.6448   17.0420   -7.1908 H   0  0  0  0  0  0  0  0  0  0  0  0
   -3.5300   12.6211   -6.4255 H   0  0  0  0  0  0  0  0  0  0  0  0
   -1.8130   12.2240   -7.2249 H   0  0  0  0  0  0  0  0  0  0  0  0
   -3.4750   11.7688  -10.3871 H   0  0  0  0  0  0  0  0  0  0  0  0
   -2.2548   11.1930   -8.9841 H   0  0  0  0  0  0  0  0  0  0  0  0
   -3.5488    7.8380   -6.0088 H   0  0  0  0  0  0  0  0  0  0  0  0
   -3.8720    6.4760   -4.1251 H   0  0  0  0  0  0  0  0  0  0  0  0
   -7.5648    8.7321   -6.0519 H   0  0  0  0  0  0  0  0  0  0  0  0
   -9.7312    9.4499   -4.4319 H   0  0  0  0  0  0  0  0  0  0  0  0
  -10.0246    8.8692   -2.5917 H   0  0  0  0  0  0  0  0  0  0  0  0
   -7.5949   10.3441   -4.0118 H   0  0  0  0  0  0  0  0  0  0  0  0
   -7.1414    9.1331   -2.5672 H   0  0  0  0  0  0  0  0  0  0  0  0
  -10.5488   10.4349   -2.3164 H   0  0  0  0  0  0  0  0  0  0  0  0
   -9.7884   11.8009   -3.4839 H   0  0  0  0  0  0  0  0  0  0  0  0
  -10.2650   11.9165   -0.2699 H   0  0  0  0  0  0  0  0  0  0  0  0
  -11.3259   12.8009   -1.6602 H   0  0  0  0  0  0  0  0  0  0  0  0
   -7.0419   13.9841   -1.1569 H   0  0  0  0  0  0  0  0  0  0  0  0
   -7.7743   12.5992    0.0151 H   0  0  0  0  0  0  0  0  0  0  0  0
   -7.4588   12.4816   -3.2210 H   0  0  0  0  0  0  0  0  0  0  0  0
   -6.3402   11.6218   -1.8749 H   0  0  0  0  0  0  0  0  0  0  0  0
   -7.4863    7.8080   -9.1819 H   0  0  0  0  0  0  0  0  0  0  0  0
   -8.2800    8.9948   -7.8461 H   0  0  0  0  0  0  0  0  0  0  0  0
   -6.9426    8.8781  -11.4009 H   0  0  0  0  0  0  0  0  0  0  0  0
   -7.8696   10.5228  -11.8951 H   0  0  0  0  0  0  0  0  0  0  0  0
   -6.4275   11.9414  -10.4688 H   0  0  0  0  0  0  0  0  0  0  0  0
   -5.2557   10.6982  -11.4258 H   0  0  0  0  0  0  0  0  0  0  0  0
  -11.0141   11.4133   -9.5426 H   0  0  0  0  0  0  0  0  0  0  0  0
  -12.0132    9.7990   -9.1412 H   0  0  0  0  0  0  0  0  0  0  0  0
  -10.5204   10.3165   -7.9993 H   0  0  0  0  0  0  0  0  0  0  0  0
    0.2257   17.2511   -5.3977 H   0  0  0  0  0  0  0  0  0  0  0  0
   -9.2594   14.0936   -2.4521 H   0  0  0  0  0  0  0  0  0  0  0  0
  -11.3835   14.3158   -0.6902 H   0  0  0  0  0  0  0  0  0  0  0  0
  -10.7876   15.6862   -0.7438 H   0  0  0  0  0  0  0  0  0  0  0  0
   -2.9457   14.9135   -6.7056 H   0  0  0  0  0  0  0  0  0  0  0  0
   -8.4051   10.5164   -1.2237 H   0  0  0  0  0  0  0  0  0  0  0  0
   -5.0712   13.3141   -9.2923 H   0  0  0  0  0  0  0  0  0  0  0  0
  1  2  1  0  0  0  0
  1  6  1  0  0  0  0
  1 47  1  0  0  0  0
  2  3  1  0  0  0  0
  2 48  1  0  0  0  0
  2 49  1  0  0  0  0
  3  4  1  0  0  0  0
  3 50  1  0  0  0  0
  3 51  1  0  0  0  0
  4  5  1  0  0  0  0
  4  7  1  0  0  0  0
  5  6  1  0  0  0  0
  5 52  1  0  0  0  0
  5 53  1  0  0  0  0
  6 54  1  0  0  0  0
  6 55  1  0  0  0  0
  7  8  1  0  0  0  0
  7 56  1  0  0  0  0
  7 57  1  0  0  0  0
  8  9  1  0  0  0  0
  8 45  1  0  0  0  0
  8 46  1  6  0  0  0
  9 10  1  0  0  0  0
  9 58  1  0  0  0  0
  9 59  1  0  0  0  0
 10 11  1  0  0  0  0
 10 14  1  0  0  0  0
 11 12  2  0  0  0  0
 11 37  1  0  0  0  0
 12 13  1  0  0  0  0
 12 34  1  0  0  0  0
 13 14  2  0  0  0  0
 13 15  1  0  0  0  0
 15 16  2  0  0  0  0
 15 20  1  0  0  0  0
 16 17  1  0  0  0  0
 16 60  1  0  0  0  0
 17 18  2  0  0  0  0
 17 61  1  0  0  0  0
 18 19  1  0  0  0  0
 18 30  1  0  0  0  0
 19 20  2  0  0  0  0
 19 21  1  0  0  0  0
 20 62  1  0  0  0  0
 21 22  1  0  0  0  0
 22 23  1  0  0  0  0
 22 63  1  0  0  0  0
 22 64  1  0  0  0  0
 23 24  1  0  0  0  0
 23 65  1  0  0  0  0
 23 66  1  0  0  0  0
 24 25  1  0  0  0  0
 24 29  1  0  0  0  0
 24 89  1  1  0  0  0
 25 26  1  0  0  0  0
 25 67  1  0  0  0  0
 25 68  1  0  0  0  0
 26 27  1  0  0  0  0
 26 69  1  0  0  0  0
 26 70  1  0  0  0  0
 27 28  1  0  0  0  0
 27 42  1  0  0  0  0
 27 85  1  6  0  0  0
 28 29  1  0  0  0  0
 28 71  1  0  0  0  0
 28 72  1  0  0  0  0
 29 73  1  0  0  0  0
 29 74  1  0  0  0  0
 30 31  1  0  0  0  0
 30 32  1  0  0  0  0
 30 33  1  0  0  0  0
 34 35  1  0  0  0  0
 34 75  1  0  0  0  0
 34 76  1  0  0  0  0
 35 36  1  0  0  0  0
 35 38  1  0  0  0  0
 36 37  1  0  0  0  0
 36 77  1  0  0  0  0
 36 78  1  0  0  0  0
 37 79  1  0  0  0  0
 37 80  1  0  0  0  0
 38 39  2  0  0  0  0
 38 40  2  0  0  0  0
 38 41  1  0  0  0  0
 41 81  1  0  0  0  0
 41 82  1  0  0  0  0
 41 83  1  0  0  0  0
 43 42  1  0  0  0  0
 44 42  2  0  0  0  0
 45 90  1  0  0  0  0
 84  1  1  0  0  0  0
 86 43  1  0  0  0  0
 87 43  1  0  0  0  0
 88  4  1  0  0  0  0
M  CHG  2   4   1  24   1
M  END
$$$$
