lig_CHEMBL3402748_5300_8
  -OEChem-01272013113D

 44 47  0     0  0  0  0  0  0999 V2000
   25.4800   34.1900   52.0000 C   0  0  0  0  0  0  0  0  0  0  0  0
   24.3400   33.7100   52.8600 C   0  0  0  0  0  0  0  0  0  0  0  0
   23.0500   33.4000   52.5000 C   0  0  0  0  0  0  0  0  0  0  0  0
   22.4100   33.1000   53.6700 N   0  0  0  0  0  0  0  0  0  0  0  0
   23.3400   33.2300   54.6600 C   0  0  0  0  0  0  0  0  0  0  0  0
   24.5100   33.5900   54.1700 N   0  0  0  0  0  0  0  0  0  0  0  0
   23.0800   32.9500   56.1100 C   0  0  0  0  0  0  0  0  0  0  0  0
   24.1300   32.9900   57.0400 C   0  0  0  0  0  0  0  0  0  0  0  0
   23.9100   32.6300   58.3700 C   0  0  0  0  0  0  0  0  0  0  0  0
   22.6400   32.2300   58.7800 C   0  0  0  0  0  0  0  0  0  0  0  0
   21.5800   32.2100   57.8800 C   0  0  0  0  0  0  0  0  0  0  0  0
   20.1900   31.7900   58.3400 C   0  0  0  0  0  0  0  0  0  0  0  0
   19.8600   30.4000   57.9600 N   0  0  0  0  0  0  0  0  0  0  0  0
   19.3500   30.2300   56.6700 N   0  0  0  0  0  0  0  0  0  0  0  0
   19.0500   29.0700   56.1900 C   0  0  0  0  0  0  0  0  0  0  0  0
   19.3200   27.9300   57.0500 C   0  0  0  0  0  0  0  0  0  0  0  0
   19.8500   28.0800   58.2900 C   0  0  0  0  0  0  0  0  0  0  0  0
   20.1700   29.3900   58.8400 C   0  0  0  0  0  0  0  0  0  0  0  0
   20.6500   29.5300   59.9700 O   0  0  0  0  0  0  0  0  0  0  0  0
   18.4300   28.9000   54.8500 C   0  0  0  0  0  0  0  0  0  0  0  0
   18.2500   27.6400   54.2600 C   0  0  0  0  0  0  0  0  0  0  0  0
   17.5800   27.5100   53.0400 C   0  0  0  0  0  0  0  0  0  0  0  0
   17.3800   26.2800   52.5000 F   0  0  0  0  0  0  0  0  0  0  0  0
   17.0900   28.6400   52.3900 C   0  0  0  0  0  0  0  0  0  0  0  0
   17.2700   29.9000   52.9500 C   0  0  0  0  0  0  0  0  0  0  0  0
   16.8000   31.0000   52.3300 F   0  0  0  0  0  0  0  0  0  0  0  0
   17.9300   30.0200   54.1700 C   0  0  0  0  0  0  0  0  0  0  0  0
   21.8000   32.5900   56.5500 C   0  0  0  0  0  0  0  0  0  0  0  0
   26.3300   33.5300   51.9800 H   0  0  0  0  0  0  0  0  0  0  0  0
   25.8400   35.1300   52.4100 H   0  0  0  0  0  0  0  0  0  0  0  0
   25.1700   34.3800   50.9700 H   0  0  0  0  0  0  0  0  0  0  0  0
   22.5300   33.3900   51.5500 H   0  0  0  0  0  0  0  0  0  0  0  0
   21.4400   32.8300   53.7700 H   0  0  0  0  0  0  0  0  0  0  0  0
   25.1300   33.2700   56.7300 H   0  0  0  0  0  0  0  0  0  0  0  0
   24.7300   32.6500   59.0700 H   0  0  0  0  0  0  0  0  0  0  0  0
   22.4900   31.9300   59.8000 H   0  0  0  0  0  0  0  0  0  0  0  0
   20.0900   31.9500   59.4200 H   0  0  0  0  0  0  0  0  0  0  0  0
   19.4500   32.4600   57.9000 H   0  0  0  0  0  0  0  0  0  0  0  0
   19.1200   26.9100   56.7400 H   0  0  0  0  0  0  0  0  0  0  0  0
   20.0400   27.2200   58.9000 H   0  0  0  0  0  0  0  0  0  0  0  0
   18.6000   26.7300   54.7200 H   0  0  0  0  0  0  0  0  0  0  0  0
   16.5600   28.5300   51.4500 H   0  0  0  0  0  0  0  0  0  0  0  0
   18.0400   31.0100   54.5800 H   0  0  0  0  0  0  0  0  0  0  0  0
   20.9700   32.5600   55.8600 H   0  0  0  0  0  0  0  0  0  0  0  0
  1 31  1  0  0  0  0
 24 42  1  0  0  0  0
  3 32  1  0  0  0  0
  1 29  1  0  0  0  0
  1 30  1  0  0  0  0
  1  2  1  0  0  0  0
 25 26  1  0  0  0  0
 24 25  2  0  0  0  0
 22 24  1  0  0  0  0
  2  3  2  0  0  0  0
  3  4  1  0  0  0  0
 22 23  1  0  0  0  0
  2  6  1  0  0  0  0
 25 27  1  0  0  0  0
 21 22  2  0  0  0  0
  4 33  1  0  0  0  0
  4  5  1  0  0  0  0
  5  6  2  0  0  0  0
 27 43  1  0  0  0  0
 20 27  2  0  0  0  0
 21 41  1  0  0  0  0
 20 21  1  0  0  0  0
  5  7  1  0  0  0  0
 15 20  1  0  0  0  0
 28 44  1  0  0  0  0
  7 28  2  0  0  0  0
  7  8  1  0  0  0  0
 14 15  2  0  0  0  0
 15 16  1  0  0  0  0
 11 28  1  0  0  0  0
 13 14  1  0  0  0  0
  8 34  1  0  0  0  0
 16 39  1  0  0  0  0
  8  9  2  0  0  0  0
 16 17  2  0  0  0  0
 11 12  1  0  0  0  0
 10 11  2  0  0  0  0
 12 38  1  0  0  0  0
 12 13  1  0  0  0  0
 13 18  1  0  0  0  0
 17 18  1  0  0  0  0
 17 40  1  0  0  0  0
 12 37  1  0  0  0  0
  9 10  1  0  0  0  0
  9 35  1  0  0  0  0
 10 36  1  0  0  0  0
 18 19  2  0  0  0  0
M  END
$$$$
