@<TRIPOS>MOLECULE
1a
 27 29 0 0 0
SMALL
GASTEIGER
****
Structure written by MMmdl.
@<TRIPOS>ATOM
      1 C         -15.3524  -19.2206  -25.9684 C.ar    1  LIG1        0.0174
      2 C         -14.6526  -19.7081  -27.0823 C.ar    1  LIG1       -0.0511
      3 C         -15.8555  -20.1235  -25.0241 C.ar    1  LIG1       -0.0511
      4 C         -14.4541  -21.0636  -27.2485 C.ar    1  LIG1       -0.0611
      5 C         -15.6357  -21.4854  -25.1840 C.ar    1  LIG1       -0.0611
      6 N         -15.0526  -16.9445  -26.6871 N.ar    1  LIG1       -0.2290
      7 C         -14.9347  -21.9631  -26.2988 C.ar    1  LIG1       -0.0617
      8 C         -15.2162  -15.5610  -26.5929 C.ar    1  LIG1        0.0785
      9 C         -15.9031  -15.0059  -25.5037 C.ar    1  LIG1        0.0647
     10 C         -15.4462  -12.8187  -26.3599 C.ar    1  LIG1       -0.0609
     11 C         -14.7773  -13.3552  -27.4525 C.ar    1  LIG1       -0.0597
     12 C         -16.0203  -13.6235  -25.3815 C.ar    1  LIG1       -0.0474
     13 C         -14.6768  -14.7359  -27.5934 C.ar    1  LIG1       -0.0355
     14 C         -16.5313  -15.9392  -24.4895 C.ar    1  LIG1        0.2595
     15 N         -16.2584  -17.2435  -24.7671 N.ar    1  LIG1       -0.3064
     16 C         -15.5317  -17.7669  -25.8203 C.ar    1  LIG1        0.1414
     17 O         -17.2406  -15.6098  -23.5374 O.2     1  LIG1       -0.2671
     18 H         -14.2525  -19.0464  -27.8382 H       1  LIG1        0.0625
     19 H         -16.3981  -19.7943  -24.1510 H       1  LIG1        0.0625
     20 H         -13.8938  -21.4078  -28.1049 H       1  LIG1        0.0618
     21 H         -15.9903  -22.1635  -24.4209 H       1  LIG1        0.0618
     22 H         -14.3604  -12.6891  -28.1964 H       1  LIG1        0.0618
     23 H         -16.5458  -13.1713  -24.5494 H       1  LIG1        0.0626
     24 H         -16.7352  -17.8915  -24.1540 H       1  LIG1        0.1704
     25 H         -14.1941  -15.1755  -28.4537 H       1  LIG1        0.0639
     26 H         -15.5319  -11.7476  -26.2520 H       1  LIG1        0.0618
     27 H         -14.7660  -23.0224  -26.4244 H       1  LIG1        0.0618
@<TRIPOS>BOND
     1     1     2   ar
     2     1     3   ar
     3     1    16    1
     4     2     4   ar
     5     2    18    1
     6     3     5   ar
     7     3    19    1
     8     4     7   ar
     9     4    20    1
    10     5     7   ar
    11     5    21    1
    12     6     8   ar
    13     6    16   ar
    14     7    27    1
    15     8     9   ar
    16     8    13   ar
    17     9    12   ar
    18     9    14   ar
    19    10    11   ar
    20    10    12   ar
    21    10    26    1
    22    11    13   ar
    23    11    22    1
    24    12    23    1
    25    13    25    1
    26    14    15   ar
    27    14    17    2
    28    15    16   ar
    29    15    24    1
