@<TRIPOS>MOLECULE
3a
 39 41 0 0 0
SMALL
GASTEIGER
****
Structure written by MMmdl.
@<TRIPOS>ATOM
      1 N         -14.9816  -16.8848  -26.7516 N.ar    1  LIG1       -0.2290
      2 C         -15.4574  -17.7370  -25.9019 C.ar    1  LIG1        0.1414
      3 N         -16.1716  -17.2489  -24.8288 N.ar    1  LIG1       -0.3064
      4 C         -16.4816  -15.9693  -24.5201 C.ar    1  LIG1        0.2595
      5 O         -17.2339  -15.7049  -23.5851 O.2     1  LIG1       -0.2671
      6 C         -15.3028  -19.1965  -26.0227 C.ar    1  LIG1        0.0174
      7 C         -15.7965  -20.0495  -25.0297 C.ar    1  LIG1       -0.0508
      8 C         -15.5658  -21.4095  -25.0956 C.ar    1  LIG1       -0.0574
      9 C         -14.8063  -21.9515  -26.1302 C.ar    1  LIG1       -0.0419
     10 C         -14.3983  -21.1196  -27.1811 C.ar    1  LIG1       -0.0574
     11 C         -14.6397  -19.7519  -27.1232 C.ar    1  LIG1       -0.0508
     12 C         -14.3680  -23.4201  -26.0124 C.3     1  LIG1       -0.0127
     13 C         -15.1526  -15.5000  -26.5810 C.ar    1  LIG1        0.0785
     14 C         -15.8439  -14.9900  -25.4754 C.ar    1  LIG1        0.0647
     15 C         -15.9352  -13.6164  -25.2666 C.ar    1  LIG1       -0.0474
     16 C         -15.3329  -12.7479  -26.1806 C.ar    1  LIG1       -0.0609
     17 C         -14.6736  -13.2481  -27.3060 C.ar    1  LIG1       -0.0597
     18 C         -14.5950  -14.6270  -27.5156 C.ar    1  LIG1       -0.0355
     19 C         -13.4015  -23.7780  -27.1663 C.3     1  LIG1       -0.0560
     20 C         -15.6399  -24.3094  -26.0018 C.3     1  LIG1       -0.0560
     21 C         -13.6628  -23.7212  -24.6935 C.3     1  LIG1       -0.0560
     22 H         -16.6288  -17.9244  -24.2312 H       1  LIG1        0.1704
     23 H         -16.3148  -19.6807  -24.1585 H       1  LIG1        0.0625
     24 H         -15.9160  -22.0334  -24.2877 H       1  LIG1        0.0621
     25 H         -13.8381  -21.4999  -28.0219 H       1  LIG1        0.0621
     26 H         -14.2700  -19.1240  -27.9229 H       1  LIG1        0.0625
     27 H         -16.4540  -13.2266  -24.4025 H       1  LIG1        0.0626
     28 H         -15.3779  -11.6800  -26.0215 H       1  LIG1        0.0618
     29 H         -14.2191  -12.5644  -28.0101 H       1  LIG1        0.0618
     30 H         -14.0707  -15.0162  -28.3762 H       1  LIG1        0.0639
     31 H         -12.6996  -22.9672  -27.3675 H       1  LIG1        0.0238
     32 H         -13.9402  -23.9935  -28.0868 H       1  LIG1        0.0238
     33 H         -12.7933  -24.6547  -26.9473 H       1  LIG1        0.0238
     34 H         -16.4310  -23.8550  -25.4054 H       1  LIG1        0.0238
     35 H         -15.4994  -25.3013  -25.5827 H       1  LIG1        0.0238
     36 H         -16.0260  -24.4398  -27.0037 H       1  LIG1        0.0238
     37 H         -14.2630  -23.3726  -23.8575 H       1  LIG1        0.0238
     38 H         -12.6754  -23.2637  -24.6380 H       1  LIG1        0.0238
     39 H         -13.5382  -24.7984  -24.5916 H       1  LIG1        0.0238
@<TRIPOS>BOND
     1     1     2   ar
     2     1    13   ar
     3     2     3   ar
     4     2     6    1
     5     3     4   ar
     6     3    22    1
     7     4     5    2
     8     4    14   ar
     9     6     7   ar
    10     6    11   ar
    11     7     8   ar
    12     7    23    1
    13     8     9   ar
    14     8    24    1
    15     9    10   ar
    16     9    12    1
    17    10    11   ar
    18    10    25    1
    19    11    26    1
    20    12    19    1
    21    12    20    1
    22    12    21    1
    23    13    14   ar
    24    13    18   ar
    25    14    15   ar
    26    15    16   ar
    27    15    27    1
    28    16    17   ar
    29    16    28    1
    30    17    18   ar
    31    17    29    1
    32    18    30    1
    33    19    31    1
    34    19    32    1
    35    19    33    1
    36    20    34    1
    37    20    35    1
    38    20    36    1
    39    21    37    1
    40    21    38    1
    41    21    39    1
