@<TRIPOS>MOLECULE
3b
 39 41 0 0 0
SMALL
GASTEIGER
****
Structure written by MMmdl.
@<TRIPOS>ATOM
      1 C         -14.5843  -14.7116  -27.5536 C.ar    1  LIG1       -0.0328
      2 C         -15.1563  -15.5168  -26.5725 C.ar    1  LIG1        0.0787
      3 C         -14.6839  -13.3308  -27.4341 C.ar    1  LIG1       -0.0244
      4 C         -15.8704  -14.9642  -25.5050 C.ar    1  LIG1        0.0674
      5 N         -14.9849  -16.8888  -26.6806 N.ar    1  LIG1       -0.2290
      6 C         -15.3785  -12.7815  -26.3579 C.ar    1  LIG1        0.1243
      7 C         -15.9898  -13.5830  -25.3915 C.ar    1  LIG1       -0.0121
      8 C         -16.4951  -15.9110  -24.5008 C.ar    1  LIG1        0.2596
      9 N         -16.1292  -17.2016  -24.7265 N.ar    1  LIG1       -0.3064
     10 O         -17.2749  -15.6059  -23.5994 O.2     1  LIG1       -0.2671
     11 C         -15.4369  -17.7151  -25.8030 C.ar    1  LIG1        0.1414
     12 C         -15.2562  -19.1608  -25.9636 C.ar    1  LIG1        0.0174
     13 C         -14.5830  -19.6077  -27.1049 C.ar    1  LIG1       -0.0508
     14 C         -14.3265  -20.9447  -27.2876 C.ar    1  LIG1       -0.0574
     15 C         -14.7480  -21.8824  -26.3421 C.ar    1  LIG1       -0.0419
     16 C         -15.4530  -21.4469  -25.2145 C.ar    1  LIG1       -0.0574
     17 C         -15.7105  -20.0928  -25.0243 C.ar    1  LIG1       -0.0508
     18 F         -15.4673  -11.4547  -26.2714 F       1  LIG1       -0.2055
     19 C         -14.3949  -23.3652  -26.5136 C.3     1  LIG1       -0.0127
     20 C         -15.5854  -24.2010  -26.0389 C.3     1  LIG1       -0.0560
     21 C         -13.1695  -23.7636  -25.6881 C.3     1  LIG1       -0.0560
     22 C         -14.0156  -23.6918  -27.9583 C.3     1  LIG1       -0.0560
     23 H         -14.0466  -15.1535  -28.3807 H       1  LIG1        0.0640
     24 H         -14.2301  -12.6806  -28.1699 H       1  LIG1        0.0647
     25 H         -16.5321  -13.1395  -24.5694 H       1  LIG1        0.0654
     26 H         -16.5900  -17.8635  -24.1166 H       1  LIG1        0.1704
     27 H         -14.2270  -18.9240  -27.8639 H       1  LIG1        0.0625
     28 H         -13.7744  -21.2114  -28.1733 H       1  LIG1        0.0621
     29 H         -15.7825  -22.1540  -24.4698 H       1  LIG1        0.0621
     30 H         -16.2395  -19.7878  -24.1323 H       1  LIG1        0.0625
     31 H         -16.4452  -24.1248  -26.7063 H       1  LIG1        0.0238
     32 H         -15.9076  -23.8895  -25.0475 H       1  LIG1        0.0238
     33 H         -15.2786  -25.2372  -25.9762 H       1  LIG1        0.0238
     34 H         -12.3282  -23.1165  -25.9090 H       1  LIG1        0.0238
     35 H         -12.7992  -24.7579  -25.8883 H       1  LIG1        0.0238
     36 H         -13.3872  -23.7048  -24.6291 H       1  LIG1        0.0238
     37 H         -13.2997  -22.9543  -28.2921 H       1  LIG1        0.0238
     38 H         -14.8831  -23.6893  -28.6146 H       1  LIG1        0.0238
     39 H         -13.5115  -24.6565  -28.0471 H       1  LIG1        0.0238
@<TRIPOS>BOND
     1     1     2   ar
     2     1     3   ar
     3     1    23    1
     4     2     4   ar
     5     2     5   ar
     6     3     6   ar
     7     3    24    1
     8     4     7   ar
     9     4     8   ar
    10     5    11   ar
    11     6     7   ar
    12     6    18    1
    13     7    25    1
    14     8     9   ar
    15     8    10    2
    16     9    11   ar
    17     9    26    1
    18    11    12    1
    19    12    13   ar
    20    12    17   ar
    21    13    14   ar
    22    13    27    1
    23    14    15   ar
    24    14    28    1
    25    15    16   ar
    26    15    19    1
    27    16    17   ar
    28    16    29    1
    29    17    30    1
    30    19    20    1
    31    19    21    1
    32    19    22    1
    33    20    31    1
    34    20    32    1
    35    20    33    1
    36    21    34    1
    37    21    35    1
    38    21    36    1
    39    22    37    1
    40    22    38    1
    41    22    39    1
