@<TRIPOS>MOLECULE
5a
 37 39 0 0 0
SMALL
GASTEIGER
****
Structure written by MMmdl.
@<TRIPOS>ATOM
      1 C         -14.4887  -14.6549  -27.5068 C.ar    1  LIG1       -0.0355
      2 C         -15.0784  -15.5105  -26.5765 C.ar    1  LIG1        0.0785
      3 C         -14.5574  -13.2734  -27.3136 C.ar    1  LIG1       -0.0597
      4 C         -15.7939  -14.9851  -25.4970 C.ar    1  LIG1        0.0647
      5 N         -14.9153  -16.8955  -26.7252 N.ar    1  LIG1       -0.2290
      6 C         -15.2379  -12.7551  -26.2102 C.ar    1  LIG1       -0.0609
      7 C         -15.8736  -13.6081  -25.3035 C.ar    1  LIG1       -0.0474
      8 C         -16.4670  -15.9501  -24.5521 C.ar    1  LIG1        0.2595
      9 N         -16.1428  -17.2389  -24.8228 N.ar    1  LIG1       -0.3064
     10 O         -17.2507  -15.6565  -23.6551 O.2     1  LIG1       -0.2671
     11 C         -15.4124  -17.7404  -25.8797 C.ar    1  LIG1        0.1414
     12 C         -15.2750  -19.2019  -26.0235 C.ar    1  LIG1        0.0174
     13 C         -15.8060  -20.0944  -25.0806 C.ar    1  LIG1       -0.0508
     14 C         -15.6365  -21.4652  -25.2376 C.ar    1  LIG1       -0.0552
     15 C         -14.9291  -21.9656  -26.3345 C.ar    1  LIG1       -0.0166
     16 C         -14.4216  -21.0786  -27.2845 C.ar    1  LIG1       -0.0552
     17 C         -14.5948  -19.7141  -27.1334 C.ar    1  LIG1       -0.0508
     18 C         -14.5885  -23.4545  -26.4120 C.3     1  LIG1        0.0854
     19 O         -14.2373  -23.8906  -27.6995 O.3     1  LIG1       -0.3845
     20 C         -15.7670  -24.3817  -26.0807 C.3     1  LIG1       -0.0321
     21 C         -13.3520  -23.6762  -25.5380 C.3     1  LIG1       -0.0321
     22 H         -13.9461  -15.0592  -28.3490 H       1  LIG1        0.0639
     23 H         -14.0765  -12.6015  -28.0118 H       1  LIG1        0.0618
     24 H         -15.2675  -11.6846  -26.0655 H       1  LIG1        0.0618
     25 H         -16.4083  -13.2023  -24.4560 H       1  LIG1        0.0626
     26 H         -16.6142  -17.9038  -24.2244 H       1  LIG1        0.1704
     27 H         -16.3283  -19.7466  -24.2019 H       1  LIG1        0.0625
     28 H         -16.0140  -22.1325  -24.4762 H       1  LIG1        0.0621
     29 H         -13.8515  -21.4355  -28.1296 H       1  LIG1        0.0621
     30 H         -14.1785  -19.0600  -27.8872 H       1  LIG1        0.0625
     31 H         -14.0218  -24.8268  -27.6517 H       1  LIG1        0.2106
     32 H         -16.6776  -24.0445  -26.5749 H       1  LIG1        0.0260
     33 H         -15.9457  -24.4280  -25.0079 H       1  LIG1        0.0260
     34 H         -15.5953  -25.4165  -26.3853 H       1  LIG1        0.0260
     35 H         -12.5514  -22.9776  -25.7877 H       1  LIG1        0.0260
     36 H         -12.9573  -24.6793  -25.6884 H       1  LIG1        0.0260
     37 H         -13.5749  -23.5582  -24.4761 H       1  LIG1        0.0260
@<TRIPOS>BOND
     1     1     2   ar
     2     1     3   ar
     3     1    22    1
     4     2     4   ar
     5     2     5   ar
     6     3     6   ar
     7     3    23    1
     8     4     7   ar
     9     4     8   ar
    10     5    11   ar
    11     6     7   ar
    12     6    24    1
    13     7    25    1
    14     8     9   ar
    15     8    10    2
    16     9    11   ar
    17     9    26    1
    18    11    12    1
    19    12    13   ar
    20    12    17   ar
    21    13    14   ar
    22    13    27    1
    23    14    15   ar
    24    14    28    1
    25    15    16   ar
    26    15    18    1
    27    16    17   ar
    28    16    29    1
    29    17    30    1
    30    18    19    1
    31    18    20    1
    32    18    21    1
    33    19    31    1
    34    20    32    1
    35    20    33    1
    36    20    34    1
    37    21    35    1
    38    21    36    1
    39    21    37    1
