5a
 OpenBabel02152110423D
Structure written by MMmdl.
 37 39  0  0  1  0  0  0  0  0999 V2000
  -14.4887  -14.6549  -27.5068 C   0  0  0  0  0  0  0  0  0  0  0  0
  -15.0784  -15.5105  -26.5765 C   0  0  0  0  0  0  0  0  0  0  0  0
  -14.5574  -13.2734  -27.3136 C   0  0  0  0  0  0  0  0  0  0  0  0
  -15.7939  -14.9851  -25.4970 C   0  0  0  0  0  0  0  0  0  0  0  0
  -14.9153  -16.8955  -26.7252 N   0  0  0  0  0  0  0  0  0  0  0  0
  -15.2379  -12.7551  -26.2102 C   0  0  0  0  0  0  0  0  0  0  0  0
  -15.8736  -13.6081  -25.3035 C   0  0  0  0  0  0  0  0  0  0  0  0
  -16.4670  -15.9501  -24.5521 C   0  0  0  0  0  0  0  0  0  0  0  0
  -16.1428  -17.2389  -24.8228 N   0  0  0  0  0  0  0  0  0  0  0  0
  -17.2507  -15.6565  -23.6551 O   0  0  0  0  0  0  0  0  0  0  0  0
  -15.4124  -17.7404  -25.8797 C   0  0  0  0  0  0  0  0  0  0  0  0
  -15.2750  -19.2019  -26.0235 C   0  0  0  0  0  0  0  0  0  0  0  0
  -15.8060  -20.0944  -25.0806 C   0  0  0  0  0  0  0  0  0  0  0  0
  -15.6365  -21.4652  -25.2376 C   0  0  0  0  0  0  0  0  0  0  0  0
  -14.9291  -21.9656  -26.3345 C   0  0  0  0  0  0  0  0  0  0  0  0
  -14.4216  -21.0786  -27.2845 C   0  0  0  0  0  0  0  0  0  0  0  0
  -14.5948  -19.7141  -27.1334 C   0  0  0  0  0  0  0  0  0  0  0  0
  -14.5885  -23.4545  -26.4120 C   0  0  0  0  0  0  0  0  0  0  0  0
  -14.2373  -23.8906  -27.6995 O   0  0  0  0  0  0  0  0  0  0  0  0
  -15.7670  -24.3817  -26.0807 C   0  0  0  0  0  0  0  0  0  0  0  0
  -13.3520  -23.6762  -25.5380 C   0  0  0  0  0  0  0  0  0  0  0  0
  -13.9461  -15.0592  -28.3490 H   0  0  0  0  0  0  0  0  0  0  0  0
  -14.0765  -12.6015  -28.0118 H   0  0  0  0  0  0  0  0  0  0  0  0
  -15.2675  -11.6846  -26.0655 H   0  0  0  0  0  0  0  0  0  0  0  0
  -16.4083  -13.2023  -24.4560 H   0  0  0  0  0  0  0  0  0  0  0  0
  -16.6142  -17.9038  -24.2244 H   0  0  0  0  0  0  0  0  0  0  0  0
  -16.3283  -19.7466  -24.2019 H   0  0  0  0  0  0  0  0  0  0  0  0
  -16.0140  -22.1325  -24.4762 H   0  0  0  0  0  0  0  0  0  0  0  0
  -13.8515  -21.4355  -28.1296 H   0  0  0  0  0  0  0  0  0  0  0  0
  -14.1785  -19.0600  -27.8872 H   0  0  0  0  0  0  0  0  0  0  0  0
  -14.0218  -24.8268  -27.6517 H   0  0  0  0  0  0  0  0  0  0  0  0
  -16.6776  -24.0445  -26.5749 H   0  0  0  0  0  0  0  0  0  0  0  0
  -15.9457  -24.4280  -25.0079 H   0  0  0  0  0  0  0  0  0  0  0  0
  -15.5953  -25.4165  -26.3853 H   0  0  0  0  0  0  0  0  0  0  0  0
  -12.5514  -22.9776  -25.7877 H   0  0  0  0  0  0  0  0  0  0  0  0
  -12.9573  -24.6793  -25.6884 H   0  0  0  0  0  0  0  0  0  0  0  0
  -13.5749  -23.5582  -24.4761 H   0  0  0  0  0  0  0  0  0  0  0  0
  1  2  2  0  0  0  0
  1  3  1  0  0  0  0
  1 22  1  0  0  0  0
  2  4  1  0  0  0  0
  2  5  1  0  0  0  0
  3  6  2  0  0  0  0
  3 23  1  0  0  0  0
  4  7  2  0  0  0  0
  4  8  1  0  0  0  0
  5 11  2  0  0  0  0
  6  7  1  0  0  0  0
  6 24  1  0  0  0  0
  7 25  1  0  0  0  0
  8  9  1  0  0  0  0
  8 10  2  0  0  0  0
  9 11  1  0  0  0  0
  9 26  1  0  0  0  0
 11 12  1  0  0  0  0
 12 13  2  0  0  0  0
 12 17  1  0  0  0  0
 13 14  1  0  0  0  0
 13 27  1  0  0  0  0
 14 15  2  0  0  0  0
 14 28  1  0  0  0  0
 15 16  1  0  0  0  0
 15 18  1  0  0  0  0
 16 17  2  0  0  0  0
 16 29  1  0  0  0  0
 17 30  1  0  0  0  0
 18 19  1  0  0  0  0
 18 20  1  0  0  0  0
 18 21  1  0  0  0  0
 19 31  1  0  0  0  0
 20 32  1  0  0  0  0
 20 33  1  0  0  0  0
 20 34  1  0  0  0  0
 21 35  1  0  0  0  0
 21 36  1  0  0  0  0
 21 37  1  0  0  0  0
M  END
>  <Name>
5a

>  <IC50[nM]>
13

$$$$
