@<TRIPOS>MOLECULE
5c
 37 39 0 0 0
SMALL
GASTEIGER
****
Structure written by MMmdl.
@<TRIPOS>ATOM
      1 C         -14.6402  -14.6836  -27.5547 C.ar    1  LIG1       -0.0354
      2 C         -15.1755  -15.5552  -26.6036 C.ar    1  LIG1        0.0799
      3 C         -14.7438  -13.3055  -27.3562 C.ar    1  LIG1       -0.0583
      4 C         -15.8696  -15.0613  -25.4918 C.ar    1  LIG1        0.0829
      5 N         -14.9688  -16.9303  -26.7569 N.ar    1  LIG1       -0.2289
      6 C         -15.3733  -12.8094  -26.2126 C.ar    1  LIG1       -0.0425
      7 C         -15.9336  -13.6874  -25.2804 C.ar    1  LIG1        0.0553
      8 C         -16.5077  -16.0631  -24.5388 C.ar    1  LIG1        0.2609
      9 N         -16.1797  -17.3276  -24.8519 N.ar    1  LIG1       -0.3064
     10 O         -17.2756  -15.8537  -23.5980 O.2     1  LIG1       -0.2671
     11 C         -15.4325  -17.7880  -25.9083 C.ar    1  LIG1        0.1414
     12 C         -15.2347  -19.2298  -26.0215 C.ar    1  LIG1        0.0174
     13 C         -14.5685  -19.7364  -27.1395 C.ar    1  LIG1       -0.0508
     14 C         -14.3729  -21.0966  -27.2695 C.ar    1  LIG1       -0.0552
     15 C         -14.8512  -21.9648  -26.2915 C.ar    1  LIG1       -0.0166
     16 C         -15.5073  -21.4630  -25.1657 C.ar    1  LIG1       -0.0552
     17 C         -15.7070  -20.1036  -25.0334 C.ar    1  LIG1       -0.0508
     18 C         -14.5890  -23.4530  -26.4105 C.3     1  LIG1        0.0854
     19 O         -14.2420  -23.8777  -27.6930 O.3     1  LIG1       -0.3845
     20 C         -15.8426  -24.2713  -26.2211 C.3     1  LIG1       -0.0321
     21 C         -13.4461  -23.8224  -25.4773 C.3     1  LIG1       -0.0321
     22 CL        -16.6478  -13.0758  -23.8537 Cl      1  LIG1       -0.0827
     23 H         -14.1211  -15.0714  -28.4191 H       1  LIG1        0.0639
     24 H         -14.3123  -12.6194  -28.0725 H       1  LIG1        0.0619
     25 H         -15.4161  -11.7422  -26.0453 H       1  LIG1        0.0632
     26 H         -16.6484  -18.0051  -24.2667 H       1  LIG1        0.1704
     27 H         -14.1921  -19.0860  -27.9170 H       1  LIG1        0.0625
     28 H         -13.8366  -21.4662  -28.1300 H       1  LIG1        0.0621
     29 H         -15.8567  -22.1134  -24.3782 H       1  LIG1        0.0621
     30 H         -16.2216  -19.7579  -24.1478 H       1  LIG1        0.0625
     31 H         -14.1117  -24.8317  -27.6615 H       1  LIG1        0.2106
     32 H         -16.6408  -23.8913  -26.8628 H       1  LIG1        0.0260
     33 H         -16.1710  -24.2634  -25.1835 H       1  LIG1        0.0260
     34 H         -15.7129  -25.3281  -26.4654 H       1  LIG1        0.0260
     35 H         -12.6022  -23.1441  -25.5977 H       1  LIG1        0.0260
     36 H         -13.0927  -24.8196  -25.7118 H       1  LIG1        0.0260
     37 H         -13.7424  -23.7925  -24.4280 H       1  LIG1        0.0260
@<TRIPOS>BOND
     1     1     2   ar
     2     1     3   ar
     3     1    23    1
     4     2     4   ar
     5     2     5   ar
     6     3     6   ar
     7     3    24    1
     8     4     7   ar
     9     4     8   ar
    10     5    11   ar
    11     6     7   ar
    12     6    25    1
    13     7    22    1
    14     8     9   ar
    15     8    10    2
    16     9    11   ar
    17     9    26    1
    18    11    12    1
    19    12    13   ar
    20    12    17   ar
    21    13    14   ar
    22    13    27    1
    23    14    15   ar
    24    14    28    1
    25    15    16   ar
    26    15    18    1
    27    16    17   ar
    28    16    29    1
    29    17    30    1
    30    18    19    1
    31    18    20    1
    32    18    21    1
    33    19    31    1
    34    20    32    1
    35    20    33    1
    36    20    34    1
    37    21    35    1
    38    21    36    1
    39    21    37    1
