5c
 OpenBabel03212213163D

 37 39  0  0  0  0  0  0  0  0999 V2000
  -14.6402  -14.6836  -27.5547 C   0  0  0  0  0  0  0  0  0  0  0  0
  -15.1755  -15.5552  -26.6036 C   0  0  0  0  0  0  0  0  0  0  0  0
  -14.7438  -13.3055  -27.3562 C   0  0  0  0  0  0  0  0  0  0  0  0
  -15.8696  -15.0613  -25.4918 C   0  0  0  0  0  0  0  0  0  0  0  0
  -14.9688  -16.9303  -26.7569 N   0  0  0  0  0  0  0  0  0  0  0  0
  -15.3733  -12.8094  -26.2126 C   0  0  0  0  0  0  0  0  0  0  0  0
  -15.9336  -13.6874  -25.2804 C   0  0  0  0  0  0  0  0  0  0  0  0
  -16.5077  -16.0631  -24.5388 C   0  0  0  0  0  0  0  0  0  0  0  0
  -16.1797  -17.3276  -24.8519 N   0  0  0  0  0  0  0  0  0  0  0  0
  -17.2756  -15.8537  -23.5980 O   0  0  0  0  0  0  0  0  0  0  0  0
  -15.4325  -17.7880  -25.9083 C   0  0  0  0  0  0  0  0  0  0  0  0
  -15.2347  -19.2298  -26.0215 C   0  0  0  0  0  0  0  0  0  0  0  0
  -14.5685  -19.7364  -27.1395 C   0  0  0  0  0  0  0  0  0  0  0  0
  -14.3729  -21.0966  -27.2695 C   0  0  0  0  0  0  0  0  0  0  0  0
  -14.8512  -21.9648  -26.2915 C   0  0  0  0  0  0  0  0  0  0  0  0
  -15.5073  -21.4630  -25.1657 C   0  0  0  0  0  0  0  0  0  0  0  0
  -15.7070  -20.1036  -25.0334 C   0  0  0  0  0  0  0  0  0  0  0  0
  -14.5890  -23.4530  -26.4105 C   0  0  0  0  0  0  0  0  0  0  0  0
  -14.2420  -23.8777  -27.6930 O   0  0  0  0  0  0  0  0  0  0  0  0
  -15.8426  -24.2713  -26.2211 C   0  0  0  0  0  0  0  0  0  0  0  0
  -13.4461  -23.8224  -25.4773 C   0  0  0  0  0  0  0  0  0  0  0  0
  -16.6478  -13.0758  -23.8537 Cl  0  0  0  0  0  0  0  0  0  0  0  0
  -14.1211  -15.0714  -28.4191 H   0  0  0  0  0  0  0  0  0  0  0  0
  -14.3123  -12.6194  -28.0725 H   0  0  0  0  0  0  0  0  0  0  0  0
  -15.4161  -11.7422  -26.0453 H   0  0  0  0  0  0  0  0  0  0  0  0
  -16.6484  -18.0051  -24.2667 H   0  0  0  0  0  0  0  0  0  0  0  0
  -14.1921  -19.0860  -27.9170 H   0  0  0  0  0  0  0  0  0  0  0  0
  -13.8366  -21.4662  -28.1300 H   0  0  0  0  0  0  0  0  0  0  0  0
  -15.8567  -22.1134  -24.3782 H   0  0  0  0  0  0  0  0  0  0  0  0
  -16.2216  -19.7579  -24.1478 H   0  0  0  0  0  0  0  0  0  0  0  0
  -14.1117  -24.8317  -27.6615 H   0  0  0  0  0  0  0  0  0  0  0  0
  -16.6408  -23.8913  -26.8628 H   0  0  0  0  0  0  0  0  0  0  0  0
  -16.1710  -24.2634  -25.1835 H   0  0  0  0  0  0  0  0  0  0  0  0
  -15.7129  -25.3281  -26.4655 H   0  0  0  0  0  0  0  0  0  0  0  0
  -12.6022  -23.1441  -25.5977 H   0  0  0  0  0  0  0  0  0  0  0  0
  -13.0927  -24.8196  -25.7118 H   0  0  0  0  0  0  0  0  0  0  0  0
  -13.7424  -23.7925  -24.4280 H   0  0  0  0  0  0  0  0  0  0  0  0
  1  2  2  0  0  0  0
  1  3  1  0  0  0  0
  1 23  1  0  0  0  0
  2  4  1  0  0  0  0
  2  5  1  0  0  0  0
  3  6  2  0  0  0  0
  3 24  1  0  0  0  0
  4  7  2  0  0  0  0
  4  8  1  0  0  0  0
  5 11  2  0  0  0  0
  6  7  1  0  0  0  0
  6 25  1  0  0  0  0
  7 22  1  0  0  0  0
  8  9  1  0  0  0  0
  8 10  2  0  0  0  0
  9 11  1  0  0  0  0
  9 26  1  0  0  0  0
 11 12  1  0  0  0  0
 12 13  2  0  0  0  0
 12 17  1  0  0  0  0
 13 14  1  0  0  0  0
 13 27  1  0  0  0  0
 14 15  2  0  0  0  0
 14 28  1  0  0  0  0
 15 16  1  0  0  0  0
 15 18  1  0  0  0  0
 16 17  2  0  0  0  0
 16 29  1  0  0  0  0
 17 30  1  0  0  0  0
 18 19  1  0  0  0  0
 18 20  1  0  0  0  0
 18 21  1  0  0  0  0
 19 31  1  0  0  0  0
 20 32  1  0  0  0  0
 20 33  1  0  0  0  0
 20 34  1  0  0  0  0
 21 35  1  0  0  0  0
 21 36  1  0  0  0  0
 21 37  1  0  0  0  0
M  END
>  <Name>
5c

>  <IC50[nM]>
50

>  <Total Formal Charge>
0.0

>  <Favorite_cresset>
false

>  <MW_cresset>
314.8

>  <#Atoms_cresset>
22

>  <SlogP_cresset>
3.8

>  <TPSA_cresset>
61.7

>  <Flexibility_cresset>
2.2

>  <#RB_cresset>
3

>  <Rof5_cresset>
0

>  <Filename_cresset>
ligands_tnks2.sdf

>  <Confs_cresset>
0

>  <Poses_cresset>
0

>  <Activity (Primary)_cresset>
No Primary Activity Set

$$$$
