@<TRIPOS>MOLECULE
5d
 37 39 0 0 0
SMALL
GASTEIGER
****
Structure written by MMmdl.
@<TRIPOS>ATOM
      1 C         -14.3086  -14.7921  -27.4784 C.ar    1  LIG1       -0.0328
      2 C         -15.0167  -15.5896  -26.5804 C.ar    1  LIG1        0.0787
      3 C         -14.4209  -13.4086  -27.3834 C.ar    1  LIG1       -0.0244
      4 C         -15.8598  -15.0204  -25.6172 C.ar    1  LIG1        0.0674
      5 N         -14.8572  -16.9685  -26.6643 N.ar    1  LIG1       -0.2290
      6 C         -15.2467  -12.8486  -26.4112 C.ar    1  LIG1        0.1243
      7 C         -15.9778  -13.6371  -25.5261 C.ar    1  LIG1       -0.0121
      8 F         -15.3497  -11.5222  -26.3368 F       1  LIG1       -0.2055
      9 C         -16.6344  -15.9439  -24.7010 C.ar    1  LIG1        0.2596
     10 N         -16.3378  -17.2491  -24.9375 N.ar    1  LIG1       -0.3064
     11 O         -17.4603  -15.6053  -23.8520 O.2     1  LIG1       -0.2671
     12 C         -15.4812  -17.7825  -25.8835 C.ar    1  LIG1        0.1414
     13 C         -15.3281  -19.2368  -26.0128 C.ar    1  LIG1        0.0174
     14 C         -15.7173  -20.1149  -24.9948 C.ar    1  LIG1       -0.0508
     15 C         -15.5045  -21.4792  -25.1435 C.ar    1  LIG1       -0.0552
     16 C         -14.9173  -21.9782  -26.3122 C.ar    1  LIG1       -0.0166
     17 C         -14.5597  -21.1078  -27.3352 C.ar    1  LIG1       -0.0552
     18 C         -14.7654  -19.7512  -27.1884 C.ar    1  LIG1       -0.0508
     19 C         -14.5723  -23.4575  -26.4180 C.3     1  LIG1        0.0854
     20 O         -14.2296  -23.8957  -27.7059 O.3     1  LIG1       -0.3845
     21 C         -15.7738  -24.3383  -26.1013 C.3     1  LIG1       -0.0321
     22 C         -13.3357  -23.7020  -25.5598 C.3     1  LIG1       -0.0321
     23 H         -13.6666  -15.2372  -28.2250 H       1  LIG1        0.0640
     24 H         -13.8693  -12.7659  -28.0555 H       1  LIG1        0.0647
     25 H         -16.6179  -13.1711  -24.7897 H       1  LIG1        0.0654
     26 H         -16.8986  -17.8932  -24.3961 H       1  LIG1        0.1704
     27 H         -16.1594  -19.7615  -24.0734 H       1  LIG1        0.0625
     28 H         -15.7659  -22.1386  -24.3295 H       1  LIG1        0.0621
     29 H         -14.0863  -21.4707  -28.2353 H       1  LIG1        0.0621
     30 H         -14.4611  -19.1052  -28.0006 H       1  LIG1        0.0625
     31 H         -14.0254  -24.8372  -27.6632 H       1  LIG1        0.2106
     32 H         -16.6686  -23.9680  -26.6026 H       1  LIG1        0.0260
     33 H         -15.9590  -24.3559  -25.0291 H       1  LIG1        0.0260
     34 H         -15.6385  -25.3819  -26.3933 H       1  LIG1        0.0260
     35 H         -12.5229  -23.0398  -25.8496 H       1  LIG1        0.0260
     36 H         -12.9848  -24.7235  -25.6730 H       1  LIG1        0.0260
     37 H         -13.5341  -23.5351  -24.4994 H       1  LIG1        0.0260
@<TRIPOS>BOND
     1     1     2   ar
     2     1     3   ar
     3     1    23    1
     4     2     4   ar
     5     2     5   ar
     6     3     6   ar
     7     3    24    1
     8     4     7   ar
     9     4     9   ar
    10     5    12   ar
    11     6     7   ar
    12     6     8    1
    13     7    25    1
    14     9    10   ar
    15     9    11    2
    16    10    12   ar
    17    10    26    1
    18    12    13    1
    19    13    14   ar
    20    13    18   ar
    21    14    15   ar
    22    14    27    1
    23    15    16   ar
    24    15    28    1
    25    16    17   ar
    26    16    19    1
    27    17    18   ar
    28    17    29    1
    29    18    30    1
    30    19    20    1
    31    19    21    1
    32    19    22    1
    33    20    31    1
    34    21    32    1
    35    21    33    1
    36    21    34    1
    37    22    35    1
    38    22    36    1
    39    22    37    1
