5d
 OpenBabel03212213163D

 37 39  0  0  0  0  0  0  0  0999 V2000
  -14.3086  -14.7921  -27.4784 C   0  0  0  0  0  0  0  0  0  0  0  0
  -15.0167  -15.5896  -26.5804 C   0  0  0  0  0  0  0  0  0  0  0  0
  -14.4209  -13.4086  -27.3834 C   0  0  0  0  0  0  0  0  0  0  0  0
  -15.8598  -15.0204  -25.6172 C   0  0  0  0  0  0  0  0  0  0  0  0
  -14.8572  -16.9685  -26.6643 N   0  0  0  0  0  0  0  0  0  0  0  0
  -15.2467  -12.8486  -26.4112 C   0  0  0  0  0  0  0  0  0  0  0  0
  -15.9778  -13.6371  -25.5261 C   0  0  0  0  0  0  0  0  0  0  0  0
  -15.3497  -11.5222  -26.3368 F   0  0  0  0  0  0  0  0  0  0  0  0
  -16.6344  -15.9439  -24.7010 C   0  0  0  0  0  0  0  0  0  0  0  0
  -16.3378  -17.2491  -24.9375 N   0  0  0  0  0  0  0  0  0  0  0  0
  -17.4603  -15.6053  -23.8520 O   0  0  0  0  0  0  0  0  0  0  0  0
  -15.4812  -17.7825  -25.8835 C   0  0  0  0  0  0  0  0  0  0  0  0
  -15.3281  -19.2368  -26.0128 C   0  0  0  0  0  0  0  0  0  0  0  0
  -15.7173  -20.1149  -24.9948 C   0  0  0  0  0  0  0  0  0  0  0  0
  -15.5045  -21.4792  -25.1435 C   0  0  0  0  0  0  0  0  0  0  0  0
  -14.9173  -21.9782  -26.3122 C   0  0  0  0  0  0  0  0  0  0  0  0
  -14.5597  -21.1078  -27.3352 C   0  0  0  0  0  0  0  0  0  0  0  0
  -14.7654  -19.7512  -27.1884 C   0  0  0  0  0  0  0  0  0  0  0  0
  -14.5723  -23.4575  -26.4180 C   0  0  0  0  0  0  0  0  0  0  0  0
  -14.2296  -23.8957  -27.7059 O   0  0  0  0  0  0  0  0  0  0  0  0
  -15.7738  -24.3383  -26.1013 C   0  0  0  0  0  0  0  0  0  0  0  0
  -13.3357  -23.7020  -25.5598 C   0  0  0  0  0  0  0  0  0  0  0  0
  -13.6666  -15.2372  -28.2250 H   0  0  0  0  0  0  0  0  0  0  0  0
  -13.8693  -12.7659  -28.0555 H   0  0  0  0  0  0  0  0  0  0  0  0
  -16.6179  -13.1711  -24.7897 H   0  0  0  0  0  0  0  0  0  0  0  0
  -16.8986  -17.8932  -24.3961 H   0  0  0  0  0  0  0  0  0  0  0  0
  -16.1594  -19.7615  -24.0734 H   0  0  0  0  0  0  0  0  0  0  0  0
  -15.7659  -22.1386  -24.3295 H   0  0  0  0  0  0  0  0  0  0  0  0
  -14.0863  -21.4707  -28.2353 H   0  0  0  0  0  0  0  0  0  0  0  0
  -14.4611  -19.1052  -28.0006 H   0  0  0  0  0  0  0  0  0  0  0  0
  -14.0254  -24.8372  -27.6632 H   0  0  0  0  0  0  0  0  0  0  0  0
  -16.6686  -23.9680  -26.6026 H   0  0  0  0  0  0  0  0  0  0  0  0
  -15.9590  -24.3559  -25.0291 H   0  0  0  0  0  0  0  0  0  0  0  0
  -15.6385  -25.3819  -26.3933 H   0  0  0  0  0  0  0  0  0  0  0  0
  -12.5229  -23.0398  -25.8496 H   0  0  0  0  0  0  0  0  0  0  0  0
  -12.9848  -24.7235  -25.6730 H   0  0  0  0  0  0  0  0  0  0  0  0
  -13.5341  -23.5351  -24.4994 H   0  0  0  0  0  0  0  0  0  0  0  0
  1  2  2  0  0  0  0
  1  3  1  0  0  0  0
  1 23  1  0  0  0  0
  2  4  1  0  0  0  0
  2  5  1  0  0  0  0
  3  6  2  0  0  0  0
  3 24  1  0  0  0  0
  4  7  2  0  0  0  0
  4  9  1  0  0  0  0
  5 12  2  0  0  0  0
  6  7  1  0  0  0  0
  6  8  1  0  0  0  0
  7 25  1  0  0  0  0
  9 10  1  0  0  0  0
  9 11  2  0  0  0  0
 10 12  1  0  0  0  0
 10 26  1  0  0  0  0
 12 13  1  0  0  0  0
 13 14  2  0  0  0  0
 13 18  1  0  0  0  0
 14 15  1  0  0  0  0
 14 27  1  0  0  0  0
 15 16  2  0  0  0  0
 15 28  1  0  0  0  0
 16 17  1  0  0  0  0
 16 19  1  0  0  0  0
 17 18  2  0  0  0  0
 17 29  1  0  0  0  0
 18 30  1  0  0  0  0
 19 20  1  0  0  0  0
 19 21  1  0  0  0  0
 19 22  1  0  0  0  0
 20 31  1  0  0  0  0
 21 32  1  0  0  0  0
 21 33  1  0  0  0  0
 21 34  1  0  0  0  0
 22 35  1  0  0  0  0
 22 36  1  0  0  0  0
 22 37  1  0  0  0  0
M  END
>  <Name>
5d

>  <IC50[nM]>
10.5

>  <Total Formal Charge>
0.0

>  <Favorite_cresset>
false

>  <MW_cresset>
298.3

>  <#Atoms_cresset>
22

>  <SlogP_cresset>
3.5

>  <TPSA_cresset>
61.7

>  <Flexibility_cresset>
2.2

>  <#RB_cresset>
3

>  <Rof5_cresset>
0

>  <Filename_cresset>
ligands_tnks2.sdf

>  <Confs_cresset>
0

>  <Poses_cresset>
0

>  <Activity (Primary)_cresset>
No Primary Activity Set

$$$$
