@<TRIPOS>MOLECULE
5e
 37 39 0 0 0
SMALL
GASTEIGER
****
Structure written by MMmdl.
@<TRIPOS>ATOM
      1 C         -14.6145  -14.8753  -27.6783 C.ar    1  LIG1       -0.0341
      2 C         -15.1464  -15.6452  -26.6477 C.ar    1  LIG1        0.0786
      3 C         -14.7773  -13.4982  -27.6334 C.ar    1  LIG1       -0.0413
      4 C         -15.8626  -15.0639  -25.5930 C.ar    1  LIG1        0.0661
      5 N         -14.9335  -17.0116  -26.6934 N.ar    1  LIG1       -0.2290
      6 C         -15.4592  -12.9286  -26.5614 C.ar    1  LIG1        0.0418
      7 C         -16.0212  -13.6877  -25.5413 C.ar    1  LIG1       -0.0290
      8 C         -16.4561  -15.9663  -24.5344 C.ar    1  LIG1        0.2595
      9 N         -16.1772  -17.2727  -24.7852 N.ar    1  LIG1       -0.3064
     10 O         -17.1375  -15.6099  -23.5713 O.2     1  LIG1       -0.2671
     11 C         -15.4463  -17.8122  -25.8274 C.ar    1  LIG1        0.1414
     12 C         -15.3013  -19.2577  -25.9685 C.ar    1  LIG1        0.0174
     13 C         -15.7883  -20.1437  -25.0032 C.ar    1  LIG1       -0.0508
     14 C         -15.5853  -21.5050  -25.1666 C.ar    1  LIG1       -0.0552
     15 C         -14.9212  -21.9889  -26.3002 C.ar    1  LIG1       -0.0166
     16 C         -14.4497  -21.1036  -27.2603 C.ar    1  LIG1       -0.0552
     17 C         -14.6471  -19.7514  -27.1044 C.ar    1  LIG1       -0.0508
     18 C         -14.5675  -23.4595  -26.4211 C.3     1  LIG1        0.0854
     19 O         -14.2543  -23.8948  -27.7188 O.3     1  LIG1       -0.3845
     20 CL        -15.5911  -11.2537  -26.4871 Cl      1  LIG1       -0.0835
     21 C         -15.7371  -24.3734  -26.1449 C.3     1  LIG1       -0.0321
     22 C         -13.3528  -23.6876  -25.5352 C.3     1  LIG1       -0.0321
     23 H         -14.0725  -15.3349  -28.4916 H       1  LIG1        0.0639
     24 H         -14.3582  -12.8718  -28.4085 H       1  LIG1        0.0633
     25 H         -16.5533  -13.2093  -24.7301 H       1  LIG1        0.0640
     26 H         -16.6582  -17.9076  -24.1598 H       1  LIG1        0.1704
     27 H         -16.2939  -19.7994  -24.1117 H       1  LIG1        0.0625
     28 H         -15.9101  -22.1690  -24.3811 H       1  LIG1        0.0621
     29 H         -13.8986  -21.4549  -28.1189 H       1  LIG1        0.0621
     30 H         -14.2620  -19.0974  -27.8744 H       1  LIG1        0.0625
     31 H         -14.0506  -24.8357  -27.6678 H       1  LIG1        0.2106
     32 H         -16.5721  -24.0859  -26.7829 H       1  LIG1        0.0260
     33 H         -16.0738  -24.2984  -25.1148 H       1  LIG1        0.0260
     34 H         -15.5257  -25.4267  -26.3342 H       1  LIG1        0.0260
     35 H         -12.5483  -22.9937  -25.7771 H       1  LIG1        0.0260
     36 H         -12.9750  -24.6916  -25.6788 H       1  LIG1        0.0260
     37 H         -13.5852  -23.5615  -24.4766 H       1  LIG1        0.0260
@<TRIPOS>BOND
     1     1     2   ar
     2     1     3   ar
     3     1    23    1
     4     2     4   ar
     5     2     5   ar
     6     3     6   ar
     7     3    24    1
     8     4     7   ar
     9     4     8   ar
    10     5    11   ar
    11     6     7   ar
    12     6    20    1
    13     7    25    1
    14     8     9   ar
    15     8    10    2
    16     9    11   ar
    17     9    26    1
    18    11    12    1
    19    12    13   ar
    20    12    17   ar
    21    13    14   ar
    22    13    27    1
    23    14    15   ar
    24    14    28    1
    25    15    16   ar
    26    15    18    1
    27    16    17   ar
    28    16    29    1
    29    17    30    1
    30    18    19    1
    31    18    21    1
    32    18    22    1
    33    19    31    1
    34    21    32    1
    35    21    33    1
    36    21    34    1
    37    22    35    1
    38    22    36    1
    39    22    37    1
