5f
 OpenBabel03212213163D

 37 39  0  0  0  0  0  0  0  0999 V2000
  -14.5642  -14.6384  -27.5273 C   0  0  0  0  0  0  0  0  0  0  0  0
  -15.1482  -15.5111  -26.6015 C   0  0  0  0  0  0  0  0  0  0  0  0
  -14.6521  -13.2595  -27.3238 C   0  0  0  0  0  0  0  0  0  0  0  0
  -15.8827  -14.9938  -25.5273 C   0  0  0  0  0  0  0  0  0  0  0  0
  -14.9607  -16.8981  -26.7338 N   0  0  0  0  0  0  0  0  0  0  0  0
  -15.3427  -12.7540  -26.2229 C   0  0  0  0  0  0  0  0  0  0  0  0
  -15.9780  -13.6190  -25.3283 C   0  0  0  0  0  0  0  0  0  0  0  0
  -16.5556  -15.9641  -24.5881 C   0  0  0  0  0  0  0  0  0  0  0  0
  -16.1974  -17.2475  -24.8411 N   0  0  0  0  0  0  0  0  0  0  0  0
  -17.3643  -15.6757  -23.7122 O   0  0  0  0  0  0  0  0  0  0  0  0
  -15.4538  -17.7454  -25.8883 C   0  0  0  0  0  0  0  0  0  0  0  0
  -15.2992  -19.2055  -26.0279 C   0  0  0  0  0  0  0  0  0  0  0  0
  -15.8269  -20.1007  -25.0850 C   0  0  0  0  0  0  0  0  0  0  0  0
  -15.6451  -21.4700  -25.2387 C   0  0  0  0  0  0  0  0  0  0  0  0
  -14.9295  -21.9653  -26.3318 C   0  0  0  0  0  0  0  0  0  0  0  0
  -14.4231  -21.0764  -27.2810 C   0  0  0  0  0  0  0  0  0  0  0  0
  -14.6078  -19.7133  -27.1328 C   0  0  0  0  0  0  0  0  0  0  0  0
  -14.5764  -23.4515  -26.4059 C   0  0  0  0  0  0  0  0  0  0  0  0
  -14.2382  -23.8893  -27.6950 O   0  0  0  0  0  0  0  0  0  0  0  0
  -15.7378  -24.3889  -26.0561 C   0  0  0  0  0  0  0  0  0  0  0  0
  -13.3308  -23.6575  -25.5430 C   0  0  0  0  0  0  0  0  0  0  0  0
  -13.8633  -15.1104  -28.5859 F   0  0  0  0  0  0  0  0  0  0  0  0
  -14.1704  -12.5789  -28.0136 H   0  0  0  0  0  0  0  0  0  0  0  0
  -15.3804  -11.6856  -26.0675 H   0  0  0  0  0  0  0  0  0  0  0  0
  -16.5260  -13.2239  -24.4843 H   0  0  0  0  0  0  0  0  0  0  0  0
  -16.6798  -17.9151  -24.2551 H   0  0  0  0  0  0  0  0  0  0  0  0
  -16.3566  -19.7562  -24.2096 H   0  0  0  0  0  0  0  0  0  0  0  0
  -16.0208  -22.1393  -24.4788 H   0  0  0  0  0  0  0  0  0  0  0  0
  -13.8443  -21.4300  -28.1202 H   0  0  0  0  0  0  0  0  0  0  0  0
  -14.1924  -19.0573  -27.8847 H   0  0  0  0  0  0  0  0  0  0  0  0
  -14.0150  -24.8240  -27.6453 H   0  0  0  0  0  0  0  0  0  0  0  0
  -16.6699  -24.0548  -26.5050 H   0  0  0  0  0  0  0  0  0  0  0  0
  -15.8750  -24.4385  -24.9779 H   0  0  0  0  0  0  0  0  0  0  0  0
  -15.5735  -25.4220  -26.3718 H   0  0  0  0  0  0  0  0  0  0  0  0
  -12.5376  -22.9611  -25.8134 H   0  0  0  0  0  0  0  0  0  0  0  0
  -12.9378  -24.6629  -25.6817 H   0  0  0  0  0  0  0  0  0  0  0  0
  -13.5408  -23.5212  -24.4800 H   0  0  0  0  0  0  0  0  0  0  0  0
  1  2  2  0  0  0  0
  1  3  1  0  0  0  0
  1 22  1  0  0  0  0
  2  4  1  0  0  0  0
  2  5  1  0  0  0  0
  3  6  2  0  0  0  0
  3 23  1  0  0  0  0
  4  7  2  0  0  0  0
  4  8  1  0  0  0  0
  5 11  2  0  0  0  0
  6  7  1  0  0  0  0
  6 24  1  0  0  0  0
  7 25  1  0  0  0  0
  8  9  1  0  0  0  0
  8 10  2  0  0  0  0
  9 11  1  0  0  0  0
  9 26  1  0  0  0  0
 11 12  1  0  0  0  0
 12 13  2  0  0  0  0
 12 17  1  0  0  0  0
 13 14  1  0  0  0  0
 13 27  1  0  0  0  0
 14 15  2  0  0  0  0
 14 28  1  0  0  0  0
 15 16  1  0  0  0  0
 15 18  1  0  0  0  0
 16 17  2  0  0  0  0
 16 29  1  0  0  0  0
 17 30  1  0  0  0  0
 18 19  1  0  0  0  0
 18 20  1  0  0  0  0
 18 21  1  0  0  0  0
 19 31  1  0  0  0  0
 20 32  1  0  0  0  0
 20 33  1  0  0  0  0
 20 34  1  0  0  0  0
 21 35  1  0  0  0  0
 21 36  1  0  0  0  0
 21 37  1  0  0  0  0
M  END
>  <Name>
5f

>  <IC50[nM]>
30

>  <Total Formal Charge>
0.0

>  <Favorite_cresset>
false

>  <MW_cresset>
298.3

>  <#Atoms_cresset>
22

>  <SlogP_cresset>
3.5

>  <TPSA_cresset>
61.7

>  <Flexibility_cresset>
2.2

>  <#RB_cresset>
3

>  <Rof5_cresset>
0

>  <Filename_cresset>
ligands_tnks2.sdf

>  <Confs_cresset>
0

>  <Poses_cresset>
0

>  <Activity (Primary)_cresset>
No Primary Activity Set

$$$$
