@<TRIPOS>MOLECULE
5g
 37 39 0 0 0
SMALL
GASTEIGER
****
Structure written by MMmdl.
@<TRIPOS>ATOM
      1 C         -14.5341  -14.6449  -27.5575 C.ar    1  LIG1        0.0671
      2 C         -15.0978  -15.5129  -26.6098 C.ar    1  LIG1        0.0967
      3 C         -14.6077  -13.2658  -27.3516 C.ar    1  LIG1       -0.0413
      4 C         -15.7922  -14.9870  -25.5133 C.ar    1  LIG1        0.0661
      5 N         -14.9372  -16.9036  -26.7424 N.ar    1  LIG1       -0.2275
      6 C         -15.2582  -12.7538  -26.2292 C.ar    1  LIG1       -0.0595
      7 C         -15.8700  -13.6113  -25.3131 C.ar    1  LIG1       -0.0473
      8 C         -16.4499  -15.9479  -24.5524 C.ar    1  LIG1        0.2595
      9 N         -16.1281  -17.2371  -24.8190 N.ar    1  LIG1       -0.3064
     10 O         -17.2230  -15.6491  -23.6483 O.2     1  LIG1       -0.2671
     11 C         -15.4171  -17.7439  -25.8846 C.ar    1  LIG1        0.1415
     12 C         -15.2774  -19.2043  -26.0251 C.ar    1  LIG1        0.0174
     13 C         -14.6087  -19.7171  -27.1419 C.ar    1  LIG1       -0.0508
     14 C         -14.4337  -21.0811  -27.2917 C.ar    1  LIG1       -0.0552
     15 C         -14.9292  -21.9658  -26.3338 C.ar    1  LIG1       -0.0166
     16 C         -15.6249  -21.4650  -25.2296 C.ar    1  LIG1       -0.0552
     17 C         -15.7964  -20.0948  -25.0737 C.ar    1  LIG1       -0.0508
     18 C         -14.5885  -23.4535  -26.4129 C.3     1  LIG1        0.0854
     19 O         -14.2371  -23.8914  -27.6993 O.3     1  LIG1       -0.3845
     20 C         -15.7678  -24.3783  -26.0824 C.3     1  LIG1       -0.0321
     21 C         -13.3532  -23.6779  -25.5405 C.3     1  LIG1       -0.0321
     22 CL        -13.7154  -15.2314  -28.9661 Cl      1  LIG1       -0.0813
     23 H         -14.1531  -12.5859  -28.0597 H       1  LIG1        0.0633
     24 H         -15.2871  -11.6840  -26.0800 H       1  LIG1        0.0618
     25 H         -16.3869  -13.2090  -24.4531 H       1  LIG1        0.0626
     26 H         -16.5942  -17.8981  -24.2121 H       1  LIG1        0.1704
     27 H         -14.2015  -19.0645  -27.9021 H       1  LIG1        0.0625
     28 H         -13.8728  -21.4398  -28.1422 H       1  LIG1        0.0621
     29 H         -15.9928  -22.1311  -24.4624 H       1  LIG1        0.0621
     30 H         -16.3100  -19.7464  -24.1901 H       1  LIG1        0.0625
     31 H         -14.0256  -24.8281  -27.6507 H       1  LIG1        0.2106
     32 H         -16.6748  -24.0465  -26.5885 H       1  LIG1        0.0260
     33 H         -15.9524  -24.4080  -25.0103 H       1  LIG1        0.0260
     34 H         -15.5930  -25.4162  -26.3733 H       1  LIG1        0.0260
     35 H         -12.5499  -22.9849  -25.7929 H       1  LIG1        0.0260
     36 H         -12.9687  -24.6845  -25.6920 H       1  LIG1        0.0260
     37 H         -13.5732  -23.5575  -24.4788 H       1  LIG1        0.0260
@<TRIPOS>BOND
     1     1     2   ar
     2     1     3   ar
     3     1    22    1
     4     2     4   ar
     5     2     5   ar
     6     3     6   ar
     7     3    23    1
     8     4     7   ar
     9     4     8   ar
    10     5    11   ar
    11     6     7   ar
    12     6    24    1
    13     7    25    1
    14     8     9   ar
    15     8    10    2
    16     9    11   ar
    17     9    26    1
    18    11    12    1
    19    12    13   ar
    20    12    17   ar
    21    13    14   ar
    22    13    27    1
    23    14    15   ar
    24    14    28    1
    25    15    16   ar
    26    15    18    1
    27    16    17   ar
    28    16    29    1
    29    17    30    1
    30    18    19    1
    31    18    20    1
    32    18    21    1
    33    19    31    1
    34    20    32    1
    35    20    33    1
    36    20    34    1
    37    21    35    1
    38    21    36    1
    39    21    37    1
