5g
 OpenBabel03212213163D

 37 39  0  0  0  0  0  0  0  0999 V2000
  -14.5341  -14.6449  -27.5575 C   0  0  0  0  0  0  0  0  0  0  0  0
  -15.0978  -15.5129  -26.6098 C   0  0  0  0  0  0  0  0  0  0  0  0
  -14.6077  -13.2658  -27.3516 C   0  0  0  0  0  0  0  0  0  0  0  0
  -15.7922  -14.9870  -25.5133 C   0  0  0  0  0  0  0  0  0  0  0  0
  -14.9372  -16.9036  -26.7424 N   0  0  0  0  0  0  0  0  0  0  0  0
  -15.2582  -12.7538  -26.2292 C   0  0  0  0  0  0  0  0  0  0  0  0
  -15.8700  -13.6113  -25.3131 C   0  0  0  0  0  0  0  0  0  0  0  0
  -16.4499  -15.9479  -24.5524 C   0  0  0  0  0  0  0  0  0  0  0  0
  -16.1281  -17.2371  -24.8190 N   0  0  0  0  0  0  0  0  0  0  0  0
  -17.2230  -15.6491  -23.6483 O   0  0  0  0  0  0  0  0  0  0  0  0
  -15.4171  -17.7439  -25.8846 C   0  0  0  0  0  0  0  0  0  0  0  0
  -15.2774  -19.2043  -26.0251 C   0  0  0  0  0  0  0  0  0  0  0  0
  -14.6087  -19.7171  -27.1419 C   0  0  0  0  0  0  0  0  0  0  0  0
  -14.4337  -21.0811  -27.2917 C   0  0  0  0  0  0  0  0  0  0  0  0
  -14.9292  -21.9658  -26.3338 C   0  0  0  0  0  0  0  0  0  0  0  0
  -15.6249  -21.4650  -25.2296 C   0  0  0  0  0  0  0  0  0  0  0  0
  -15.7964  -20.0948  -25.0737 C   0  0  0  0  0  0  0  0  0  0  0  0
  -14.5885  -23.4535  -26.4129 C   0  0  0  0  0  0  0  0  0  0  0  0
  -14.2371  -23.8914  -27.6993 O   0  0  0  0  0  0  0  0  0  0  0  0
  -15.7678  -24.3783  -26.0824 C   0  0  0  0  0  0  0  0  0  0  0  0
  -13.3532  -23.6779  -25.5405 C   0  0  0  0  0  0  0  0  0  0  0  0
  -13.7154  -15.2314  -28.9661 Cl  0  0  0  0  0  0  0  0  0  0  0  0
  -14.1531  -12.5859  -28.0597 H   0  0  0  0  0  0  0  0  0  0  0  0
  -15.2871  -11.6840  -26.0800 H   0  0  0  0  0  0  0  0  0  0  0  0
  -16.3869  -13.2090  -24.4531 H   0  0  0  0  0  0  0  0  0  0  0  0
  -16.5942  -17.8981  -24.2121 H   0  0  0  0  0  0  0  0  0  0  0  0
  -14.2015  -19.0645  -27.9021 H   0  0  0  0  0  0  0  0  0  0  0  0
  -13.8728  -21.4398  -28.1422 H   0  0  0  0  0  0  0  0  0  0  0  0
  -15.9928  -22.1311  -24.4624 H   0  0  0  0  0  0  0  0  0  0  0  0
  -16.3100  -19.7464  -24.1901 H   0  0  0  0  0  0  0  0  0  0  0  0
  -14.0256  -24.8281  -27.6507 H   0  0  0  0  0  0  0  0  0  0  0  0
  -16.6748  -24.0465  -26.5885 H   0  0  0  0  0  0  0  0  0  0  0  0
  -15.9524  -24.4080  -25.0103 H   0  0  0  0  0  0  0  0  0  0  0  0
  -15.5930  -25.4162  -26.3734 H   0  0  0  0  0  0  0  0  0  0  0  0
  -12.5499  -22.9849  -25.7929 H   0  0  0  0  0  0  0  0  0  0  0  0
  -12.9687  -24.6845  -25.6920 H   0  0  0  0  0  0  0  0  0  0  0  0
  -13.5732  -23.5575  -24.4788 H   0  0  0  0  0  0  0  0  0  0  0  0
  1  2  2  0  0  0  0
  1  3  1  0  0  0  0
  1 22  1  0  0  0  0
  2  4  1  0  0  0  0
  2  5  1  0  0  0  0
  3  6  2  0  0  0  0
  3 23  1  0  0  0  0
  4  7  2  0  0  0  0
  4  8  1  0  0  0  0
  5 11  2  0  0  0  0
  6  7  1  0  0  0  0
  6 24  1  0  0  0  0
  7 25  1  0  0  0  0
  8  9  1  0  0  0  0
  8 10  2  0  0  0  0
  9 11  1  0  0  0  0
  9 26  1  0  0  0  0
 11 12  1  0  0  0  0
 12 13  2  0  0  0  0
 12 17  1  0  0  0  0
 13 14  1  0  0  0  0
 13 27  1  0  0  0  0
 14 15  2  0  0  0  0
 14 28  1  0  0  0  0
 15 16  1  0  0  0  0
 15 18  1  0  0  0  0
 16 17  2  0  0  0  0
 16 29  1  0  0  0  0
 17 30  1  0  0  0  0
 18 19  1  0  0  0  0
 18 20  1  0  0  0  0
 18 21  1  0  0  0  0
 19 31  1  0  0  0  0
 20 32  1  0  0  0  0
 20 33  1  0  0  0  0
 20 34  1  0  0  0  0
 21 35  1  0  0  0  0
 21 36  1  0  0  0  0
 21 37  1  0  0  0  0
M  END
>  <Name>
5g

>  <IC50[nM]>
12

>  <Total Formal Charge>
0.0

>  <Favorite_cresset>
false

>  <MW_cresset>
314.8

>  <#Atoms_cresset>
22

>  <SlogP_cresset>
3.8

>  <TPSA_cresset>
61.7

>  <Flexibility_cresset>
2.2

>  <#RB_cresset>
3

>  <Rof5_cresset>
0

>  <Filename_cresset>
ligands_tnks2.sdf

>  <Confs_cresset>
0

>  <Poses_cresset>
0

>  <Activity (Primary)_cresset>
No Primary Activity Set

$$$$
