@<TRIPOS>MOLECULE
5h
 41 43 0 0 0
SMALL
GASTEIGER
****
Structure written by MMmdl.
@<TRIPOS>ATOM
      1 C         -14.6321  -14.6131  -27.5789 C.ar    1  LIG1        0.1461
      2 C         -15.1582  -15.4760  -26.5985 C.ar    1  LIG1        0.1200
      3 C         -14.7198  -13.2263  -27.3566 C.ar    1  LIG1       -0.0178
      4 C         -15.8099  -14.9532  -25.4732 C.ar    1  LIG1        0.0683
      5 N         -15.0163  -16.8727  -26.7418 N.ar    1  LIG1       -0.2253
      6 C         -15.3338  -12.7191  -26.2121 C.ar    1  LIG1       -0.0574
      7 C         -15.8975  -13.5773  -25.2707 C.ar    1  LIG1       -0.0471
      8 C         -16.4124  -15.9145  -24.4748 C.ar    1  LIG1        0.2596
      9 N         -16.0704  -17.2031  -24.7417 N.ar    1  LIG1       -0.3064
     10 O         -17.1581  -15.6132  -23.5452 O.2     1  LIG1       -0.2671
     11 C         -15.4259  -17.7159  -25.8489 C.ar    1  LIG1        0.1416
     12 C         -15.2670  -19.1828  -25.9921 C.ar    1  LIG1        0.0174
     13 C         -14.6478  -19.7009  -27.1380 C.ar    1  LIG1       -0.0508
     14 C         -14.4645  -21.0679  -27.2901 C.ar    1  LIG1       -0.0552
     15 C         -14.8926  -21.9587  -26.3028 C.ar    1  LIG1       -0.0166
     16 C         -15.5322  -21.4499  -25.1653 C.ar    1  LIG1       -0.0552
     17 C         -15.7215  -20.0777  -25.0122 C.ar    1  LIG1       -0.0508
     18 C         -14.5807  -23.4613  -26.4256 C.3     1  LIG1        0.0854
     19 O         -14.2589  -23.8828  -27.7351 O.3     1  LIG1       -0.3845
     20 C         -15.7774  -24.3541  -26.0965 C.3     1  LIG1       -0.0321
     21 C         -13.3649  -23.7811  -25.5544 C.3     1  LIG1       -0.0321
     22 O         -14.0089  -15.1610  -28.6904 O.3     1  LIG1       -0.4930
     23 C         -13.4790  -14.2957  -29.6929 C.3     1  LIG1        0.0789
     24 H         -14.3038  -12.5168  -28.0559 H       1  LIG1        0.0655
     25 H         -15.3670  -11.6496  -26.0662 H       1  LIG1        0.0619
     26 H         -16.3822  -13.1806  -24.3897 H       1  LIG1        0.0626
     27 H         -16.5117  -17.8636  -24.1170 H       1  LIG1        0.1704
     28 H         -14.2910  -19.0470  -27.9228 H       1  LIG1        0.0625
     29 H         -13.9561  -21.4294  -28.1721 H       1  LIG1        0.0621
     30 H         -15.8610  -22.1093  -24.3753 H       1  LIG1        0.0621
     31 H         -16.2079  -19.7296  -24.1121 H       1  LIG1        0.0625
     32 H         -14.0757  -24.8295  -27.7157 H       1  LIG1        0.2106
     33 H         -16.6353  -24.0351  -26.6807 H       1  LIG1        0.0260
     34 H         -16.0154  -24.3110  -25.0354 H       1  LIG1        0.0260
     35 H         -15.6023  -25.4031  -26.3485 H       1  LIG1        0.0260
     36 H         -12.4970  -23.2035  -25.8704 H       1  LIG1        0.0260
     37 H         -13.1139  -24.8310  -25.6259 H       1  LIG1        0.0260
     38 H         -13.5469  -23.5576  -24.5025 H       1  LIG1        0.0260
     39 H         -13.0965  -14.8894  -30.5215 H       1  LIG1        0.0660
     40 H         -12.6505  -13.6919  -29.3183 H       1  LIG1        0.0660
     41 H         -14.2476  -13.6342  -30.0951 H       1  LIG1        0.0660
@<TRIPOS>BOND
     1     1     2   ar
     2     1     3   ar
     3     1    22    1
     4     2     4   ar
     5     2     5   ar
     6     3     6   ar
     7     3    24    1
     8     4     7   ar
     9     4     8   ar
    10     5    11   ar
    11     6     7   ar
    12     6    25    1
    13     7    26    1
    14     8     9   ar
    15     8    10    2
    16     9    11   ar
    17     9    27    1
    18    11    12    1
    19    12    13   ar
    20    12    17   ar
    21    13    14   ar
    22    13    28    1
    23    14    15   ar
    24    14    29    1
    25    15    16   ar
    26    15    18    1
    27    16    17   ar
    28    16    30    1
    29    17    31    1
    30    18    19    1
    31    18    20    1
    32    18    21    1
    33    19    32    1
    34    20    33    1
    35    20    34    1
    36    20    35    1
    37    21    36    1
    38    21    37    1
    39    21    38    1
    40    22    23    1
    41    23    39    1
    42    23    40    1
    43    23    41    1
