5h
 OpenBabel02152110423D
Structure written by MMmdl.
 41 43  0  0  1  0  0  0  0  0999 V2000
  -14.6321  -14.6131  -27.5789 C   0  0  0  0  0  0  0  0  0  0  0  0
  -15.1582  -15.4760  -26.5985 C   0  0  0  0  0  0  0  0  0  0  0  0
  -14.7198  -13.2263  -27.3566 C   0  0  0  0  0  0  0  0  0  0  0  0
  -15.8099  -14.9532  -25.4732 C   0  0  0  0  0  0  0  0  0  0  0  0
  -15.0163  -16.8727  -26.7418 N   0  0  0  0  0  0  0  0  0  0  0  0
  -15.3338  -12.7191  -26.2121 C   0  0  0  0  0  0  0  0  0  0  0  0
  -15.8975  -13.5773  -25.2707 C   0  0  0  0  0  0  0  0  0  0  0  0
  -16.4124  -15.9145  -24.4748 C   0  0  0  0  0  0  0  0  0  0  0  0
  -16.0704  -17.2031  -24.7417 N   0  0  0  0  0  0  0  0  0  0  0  0
  -17.1581  -15.6132  -23.5452 O   0  0  0  0  0  0  0  0  0  0  0  0
  -15.4259  -17.7159  -25.8489 C   0  0  0  0  0  0  0  0  0  0  0  0
  -15.2670  -19.1828  -25.9921 C   0  0  0  0  0  0  0  0  0  0  0  0
  -14.6478  -19.7009  -27.1380 C   0  0  0  0  0  0  0  0  0  0  0  0
  -14.4645  -21.0679  -27.2901 C   0  0  0  0  0  0  0  0  0  0  0  0
  -14.8926  -21.9587  -26.3028 C   0  0  0  0  0  0  0  0  0  0  0  0
  -15.5322  -21.4499  -25.1653 C   0  0  0  0  0  0  0  0  0  0  0  0
  -15.7215  -20.0777  -25.0122 C   0  0  0  0  0  0  0  0  0  0  0  0
  -14.5807  -23.4613  -26.4256 C   0  0  0  0  0  0  0  0  0  0  0  0
  -14.2589  -23.8828  -27.7351 O   0  0  0  0  0  0  0  0  0  0  0  0
  -15.7774  -24.3541  -26.0965 C   0  0  0  0  0  0  0  0  0  0  0  0
  -13.3649  -23.7811  -25.5544 C   0  0  0  0  0  0  0  0  0  0  0  0
  -14.0089  -15.1610  -28.6904 O   0  0  0  0  0  0  0  0  0  0  0  0
  -13.4790  -14.2957  -29.6929 C   0  0  0  0  0  0  0  0  0  0  0  0
  -14.3038  -12.5168  -28.0559 H   0  0  0  0  0  0  0  0  0  0  0  0
  -15.3670  -11.6496  -26.0662 H   0  0  0  0  0  0  0  0  0  0  0  0
  -16.3822  -13.1806  -24.3897 H   0  0  0  0  0  0  0  0  0  0  0  0
  -16.5117  -17.8636  -24.1170 H   0  0  0  0  0  0  0  0  0  0  0  0
  -14.2910  -19.0470  -27.9228 H   0  0  0  0  0  0  0  0  0  0  0  0
  -13.9561  -21.4294  -28.1721 H   0  0  0  0  0  0  0  0  0  0  0  0
  -15.8610  -22.1093  -24.3753 H   0  0  0  0  0  0  0  0  0  0  0  0
  -16.2079  -19.7296  -24.1121 H   0  0  0  0  0  0  0  0  0  0  0  0
  -14.0757  -24.8295  -27.7157 H   0  0  0  0  0  0  0  0  0  0  0  0
  -16.6353  -24.0351  -26.6807 H   0  0  0  0  0  0  0  0  0  0  0  0
  -16.0154  -24.3110  -25.0354 H   0  0  0  0  0  0  0  0  0  0  0  0
  -15.6023  -25.4031  -26.3485 H   0  0  0  0  0  0  0  0  0  0  0  0
  -12.4970  -23.2035  -25.8704 H   0  0  0  0  0  0  0  0  0  0  0  0
  -13.1139  -24.8310  -25.6259 H   0  0  0  0  0  0  0  0  0  0  0  0
  -13.5469  -23.5576  -24.5025 H   0  0  0  0  0  0  0  0  0  0  0  0
  -13.0965  -14.8894  -30.5215 H   0  0  0  0  0  0  0  0  0  0  0  0
  -12.6505  -13.6919  -29.3183 H   0  0  0  0  0  0  0  0  0  0  0  0
  -14.2476  -13.6342  -30.0951 H   0  0  0  0  0  0  0  0  0  0  0  0
  1  2  2  0  0  0  0
  1  3  1  0  0  0  0
  1 22  1  0  0  0  0
  2  4  1  0  0  0  0
  2  5  1  0  0  0  0
  3  6  2  0  0  0  0
  3 24  1  0  0  0  0
  4  7  2  0  0  0  0
  4  8  1  0  0  0  0
  5 11  2  0  0  0  0
  6  7  1  0  0  0  0
  6 25  1  0  0  0  0
  7 26  1  0  0  0  0
  8  9  1  0  0  0  0
  8 10  2  0  0  0  0
  9 11  1  0  0  0  0
  9 27  1  0  0  0  0
 11 12  1  0  0  0  0
 12 13  2  0  0  0  0
 12 17  1  0  0  0  0
 13 14  1  0  0  0  0
 13 28  1  0  0  0  0
 14 15  2  0  0  0  0
 14 29  1  0  0  0  0
 15 16  1  0  0  0  0
 15 18  1  0  0  0  0
 16 17  2  0  0  0  0
 16 30  1  0  0  0  0
 17 31  1  0  0  0  0
 18 19  1  0  0  0  0
 18 20  1  0  0  0  0
 18 21  1  0  0  0  0
 19 32  1  0  0  0  0
 20 33  1  0  0  0  0
 20 34  1  0  0  0  0
 20 35  1  0  0  0  0
 21 36  1  0  0  0  0
 21 37  1  0  0  0  0
 21 38  1  0  0  0  0
 22 23  1  0  0  0  0
 23 39  1  0  0  0  0
 23 40  1  0  0  0  0
 23 41  1  0  0  0  0
M  END
>  <Name>
5h

>  <IC50[nM]>
43

$$$$
