@<TRIPOS>MOLECULE
5i
 40 42 0 0 0
SMALL
GASTEIGER
****
Structure written by MMmdl.
@<TRIPOS>ATOM
      1 C         -14.6297  -14.6110  -27.5812 C.ar    1  LIG1       -0.0243
      2 C         -15.1557  -15.4829  -26.6107 C.ar    1  LIG1        0.0814
      3 C         -14.7061  -13.2297  -27.3681 C.ar    1  LIG1       -0.0568
      4 C         -15.8175  -14.9591  -25.4923 C.ar    1  LIG1        0.0650
      5 N         -14.9969  -16.8771  -26.7477 N.ar    1  LIG1       -0.2287
      6 C         -15.3270  -12.7227  -26.2281 C.ar    1  LIG1       -0.0607
      7 C         -15.9055  -13.5829  -25.2945 C.ar    1  LIG1       -0.0473
      8 C         -16.4244  -15.9205  -24.4984 C.ar    1  LIG1        0.2595
      9 N         -16.0725  -17.2059  -24.7576 N.ar    1  LIG1       -0.3064
     10 O         -17.1821  -15.6197  -23.5774 O.2     1  LIG1       -0.2671
     11 C         -15.4152  -17.7178  -25.8578 C.ar    1  LIG1        0.1414
     12 C         -15.2565  -19.1843  -25.9941 C.ar    1  LIG1        0.0174
     13 C         -14.6319  -19.7039  -27.1360 C.ar    1  LIG1       -0.0508
     14 C         -14.4496  -21.0707  -27.2868 C.ar    1  LIG1       -0.0552
     15 C         -14.8843  -21.9604  -26.3031 C.ar    1  LIG1       -0.0166
     16 C         -15.5283  -21.4500  -25.1676 C.ar    1  LIG1       -0.0552
     17 C         -15.7167  -20.0783  -25.0163 C.ar    1  LIG1       -0.0508
     18 C         -14.5831  -23.4642  -26.4242 C.3     1  LIG1        0.0854
     19 O         -14.2264  -23.8803  -27.7268 O.3     1  LIG1       -0.3845
     20 C         -15.8049  -24.3384  -26.1355 C.3     1  LIG1       -0.0321
     21 C         -13.4007  -23.8019  -25.5129 C.3     1  LIG1       -0.0321
     22 C         -13.9366  -15.1262  -28.8376 C.3     1  LIG1       -0.0377
     23 H         -14.2766  -12.5394  -28.0816 H       1  LIG1        0.0621
     24 H         -15.3596  -11.6517  -26.0808 H       1  LIG1        0.0618
     25 H         -16.4005  -13.1831  -24.4207 H       1  LIG1        0.0626
     26 H         -16.5043  -17.8684  -24.1280 H       1  LIG1        0.1704
     27 H         -14.2723  -19.0519  -27.9195 H       1  LIG1        0.0625
     28 H         -13.9353  -21.4333  -28.1648 H       1  LIG1        0.0621
     29 H         -15.8641  -22.1087  -24.3790 H       1  LIG1        0.0621
     30 H         -16.2078  -19.7294  -24.1199 H       1  LIG1        0.0625
     31 H         -14.0472  -24.8289  -27.7070 H       1  LIG1        0.2106
     32 H         -16.6360  -24.0017  -26.7470 H       1  LIG1        0.0260
     33 H         -16.0765  -24.2907  -25.0828 H       1  LIG1        0.0260
     34 H         -15.6404  -25.3866  -26.3851 H       1  LIG1        0.0260
     35 H         -12.5084  -23.2486  -25.8057 H       1  LIG1        0.0260
     36 H         -13.1740  -24.8577  -25.5627 H       1  LIG1        0.0260
     37 H         -13.6102  -23.5638  -24.4695 H       1  LIG1        0.0260
     38 H         -13.7369  -14.3270  -29.5522 H       1  LIG1        0.0278
     39 H         -14.5474  -15.8740  -29.3431 H       1  LIG1        0.0278
     40 H         -12.9894  -15.5908  -28.5755 H       1  LIG1        0.0278
@<TRIPOS>BOND
     1     1     2   ar
     2     1     3   ar
     3     1    22    1
     4     2     4   ar
     5     2     5   ar
     6     3     6   ar
     7     3    23    1
     8     4     7   ar
     9     4     8   ar
    10     5    11   ar
    11     6     7   ar
    12     6    24    1
    13     7    25    1
    14     8     9   ar
    15     8    10    2
    16     9    11   ar
    17     9    26    1
    18    11    12    1
    19    12    13   ar
    20    12    17   ar
    21    13    14   ar
    22    13    27    1
    23    14    15   ar
    24    14    28    1
    25    15    16   ar
    26    15    18    1
    27    16    17   ar
    28    16    29    1
    29    17    30    1
    30    18    19    1
    31    18    20    1
    32    18    21    1
    33    19    31    1
    34    20    32    1
    35    20    33    1
    36    20    34    1
    37    21    35    1
    38    21    36    1
    39    21    37    1
    40    22    38    1
    41    22    39    1
    42    22    40    1
