5i
 OpenBabel02152110423D
Structure written by MMmdl.
 40 42  0  0  1  0  0  0  0  0999 V2000
  -14.6297  -14.6110  -27.5812 C   0  0  0  0  0  0  0  0  0  0  0  0
  -15.1557  -15.4829  -26.6107 C   0  0  0  0  0  0  0  0  0  0  0  0
  -14.7061  -13.2297  -27.3681 C   0  0  0  0  0  0  0  0  0  0  0  0
  -15.8175  -14.9591  -25.4923 C   0  0  0  0  0  0  0  0  0  0  0  0
  -14.9969  -16.8771  -26.7477 N   0  0  0  0  0  0  0  0  0  0  0  0
  -15.3270  -12.7227  -26.2281 C   0  0  0  0  0  0  0  0  0  0  0  0
  -15.9055  -13.5829  -25.2945 C   0  0  0  0  0  0  0  0  0  0  0  0
  -16.4244  -15.9205  -24.4984 C   0  0  0  0  0  0  0  0  0  0  0  0
  -16.0725  -17.2059  -24.7576 N   0  0  0  0  0  0  0  0  0  0  0  0
  -17.1821  -15.6197  -23.5774 O   0  0  0  0  0  0  0  0  0  0  0  0
  -15.4152  -17.7178  -25.8578 C   0  0  0  0  0  0  0  0  0  0  0  0
  -15.2565  -19.1843  -25.9941 C   0  0  0  0  0  0  0  0  0  0  0  0
  -14.6319  -19.7039  -27.1360 C   0  0  0  0  0  0  0  0  0  0  0  0
  -14.4496  -21.0707  -27.2868 C   0  0  0  0  0  0  0  0  0  0  0  0
  -14.8843  -21.9604  -26.3031 C   0  0  0  0  0  0  0  0  0  0  0  0
  -15.5283  -21.4500  -25.1676 C   0  0  0  0  0  0  0  0  0  0  0  0
  -15.7167  -20.0783  -25.0163 C   0  0  0  0  0  0  0  0  0  0  0  0
  -14.5831  -23.4642  -26.4242 C   0  0  0  0  0  0  0  0  0  0  0  0
  -14.2264  -23.8803  -27.7268 O   0  0  0  0  0  0  0  0  0  0  0  0
  -15.8049  -24.3384  -26.1355 C   0  0  0  0  0  0  0  0  0  0  0  0
  -13.4007  -23.8019  -25.5129 C   0  0  0  0  0  0  0  0  0  0  0  0
  -13.9366  -15.1262  -28.8376 C   0  0  0  0  0  0  0  0  0  0  0  0
  -14.2766  -12.5394  -28.0816 H   0  0  0  0  0  0  0  0  0  0  0  0
  -15.3596  -11.6517  -26.0808 H   0  0  0  0  0  0  0  0  0  0  0  0
  -16.4005  -13.1831  -24.4207 H   0  0  0  0  0  0  0  0  0  0  0  0
  -16.5043  -17.8684  -24.1280 H   0  0  0  0  0  0  0  0  0  0  0  0
  -14.2723  -19.0519  -27.9195 H   0  0  0  0  0  0  0  0  0  0  0  0
  -13.9353  -21.4333  -28.1648 H   0  0  0  0  0  0  0  0  0  0  0  0
  -15.8641  -22.1087  -24.3790 H   0  0  0  0  0  0  0  0  0  0  0  0
  -16.2078  -19.7294  -24.1199 H   0  0  0  0  0  0  0  0  0  0  0  0
  -14.0472  -24.8289  -27.7070 H   0  0  0  0  0  0  0  0  0  0  0  0
  -16.6360  -24.0017  -26.7470 H   0  0  0  0  0  0  0  0  0  0  0  0
  -16.0765  -24.2907  -25.0828 H   0  0  0  0  0  0  0  0  0  0  0  0
  -15.6404  -25.3866  -26.3851 H   0  0  0  0  0  0  0  0  0  0  0  0
  -12.5084  -23.2486  -25.8057 H   0  0  0  0  0  0  0  0  0  0  0  0
  -13.1740  -24.8577  -25.5627 H   0  0  0  0  0  0  0  0  0  0  0  0
  -13.6102  -23.5638  -24.4695 H   0  0  0  0  0  0  0  0  0  0  0  0
  -13.7369  -14.3270  -29.5522 H   0  0  0  0  0  0  0  0  0  0  0  0
  -14.5474  -15.8740  -29.3431 H   0  0  0  0  0  0  0  0  0  0  0  0
  -12.9894  -15.5908  -28.5755 H   0  0  0  0  0  0  0  0  0  0  0  0
  1  2  2  0  0  0  0
  1  3  1  0  0  0  0
  1 22  1  0  0  0  0
  2  4  1  0  0  0  0
  2  5  1  0  0  0  0
  3  6  2  0  0  0  0
  3 23  1  0  0  0  0
  4  7  2  0  0  0  0
  4  8  1  0  0  0  0
  5 11  2  0  0  0  0
  6  7  1  0  0  0  0
  6 24  1  0  0  0  0
  7 25  1  0  0  0  0
  8  9  1  0  0  0  0
  8 10  2  0  0  0  0
  9 11  1  0  0  0  0
  9 26  1  0  0  0  0
 11 12  1  0  0  0  0
 12 13  2  0  0  0  0
 12 17  1  0  0  0  0
 13 14  1  0  0  0  0
 13 27  1  0  0  0  0
 14 15  2  0  0  0  0
 14 28  1  0  0  0  0
 15 16  1  0  0  0  0
 15 18  1  0  0  0  0
 16 17  2  0  0  0  0
 16 29  1  0  0  0  0
 17 30  1  0  0  0  0
 18 19  1  0  0  0  0
 18 20  1  0  0  0  0
 18 21  1  0  0  0  0
 19 31  1  0  0  0  0
 20 32  1  0  0  0  0
 20 33  1  0  0  0  0
 20 34  1  0  0  0  0
 21 35  1  0  0  0  0
 21 36  1  0  0  0  0
 21 37  1  0  0  0  0
 22 38  1  0  0  0  0
 22 39  1  0  0  0  0
 22 40  1  0  0  0  0
M  END
>  <Name>
5i

>  <IC50[nM]>
1.4

$$$$
