5j
 OpenBabel02152110423D
Structure written by MMmdl.
 37 39  0  0  1  0  0  0  0  0999 V2000
  -14.7191  -14.7437  -27.6392 C   0  0  0  0  0  0  0  0  0  0  0  0
  -15.2100  -15.5576  -26.6217 C   0  0  0  0  0  0  0  0  0  0  0  0
  -14.8546  -13.3638  -27.5278 C   0  0  0  0  0  0  0  0  0  0  0  0
  -15.8634  -15.0119  -25.5100 C   0  0  0  0  0  0  0  0  0  0  0  0
  -15.0155  -16.9311  -26.7330 N   0  0  0  0  0  0  0  0  0  0  0  0
  -15.4818  -12.8157  -26.4108 C   0  0  0  0  0  0  0  0  0  0  0  0
  -15.9953  -13.6326  -25.3960 C   0  0  0  0  0  0  0  0  0  0  0  0
  -16.4010  -15.9560  -24.4529 C   0  0  0  0  0  0  0  0  0  0  0  0
  -16.1237  -17.2489  -24.7503 N   0  0  0  0  0  0  0  0  0  0  0  0
  -17.0404  -15.6548  -23.4436 O   0  0  0  0  0  0  0  0  0  0  0  0
  -15.4465  -17.7571  -25.8425 C   0  0  0  0  0  0  0  0  0  0  0  0
  -15.2799  -19.2057  -25.9856 C   0  0  0  0  0  0  0  0  0  0  0  0
  -15.7256  -20.0944  -24.9990 C   0  0  0  0  0  0  0  0  0  0  0  0
  -15.5412  -21.4568  -25.1662 C   0  0  0  0  0  0  0  0  0  0  0  0
  -14.9164  -21.9424  -26.3174 C   0  0  0  0  0  0  0  0  0  0  0  0
  -14.4855  -21.0603  -27.3040 C   0  0  0  0  0  0  0  0  0  0  0  0
  -14.6633  -19.7033  -27.1404 C   0  0  0  0  0  0  0  0  0  0  0  0
  -14.5856  -23.4201  -26.4266 C   0  0  0  0  0  0  0  0  0  0  0  0
  -14.2271  -23.8386  -27.7106 O   0  0  0  0  0  0  0  0  0  0  0  0
  -15.5915  -11.4816  -26.3335 F   0  0  0  0  0  0  0  0  0  0  0  0
  -16.6030  -13.1004  -24.3145 F   0  0  0  0  0  0  0  0  0  0  0  0
  -15.7860  -24.3161  -26.1231 C   0  0  0  0  0  0  0  0  0  0  0  0
  -13.3500  -23.6601  -25.5696 C   0  0  0  0  0  0  0  0  0  0  0  0
  -14.2230  -15.1759  -28.4962 H   0  0  0  0  0  0  0  0  0  0  0  0
  -14.4673  -12.7104  -28.2984 H   0  0  0  0  0  0  0  0  0  0  0  0
  -16.5489  -17.9042  -24.1082 H   0  0  0  0  0  0  0  0  0  0  0  0
  -16.1937  -19.7543  -24.0872 H   0  0  0  0  0  0  0  0  0  0  0  0
  -15.8509  -22.1245  -24.3761 H   0  0  0  0  0  0  0  0  0  0  0  0
  -13.9755  -21.4159  -28.1877 H   0  0  0  0  0  0  0  0  0  0  0  0
  -14.3101  -19.0466  -27.9244 H   0  0  0  0  0  0  0  0  0  0  0  0
  -14.0222  -24.7810  -27.6785 H   0  0  0  0  0  0  0  0  0  0  0  0
  -16.6618  -23.9901  -26.6844 H   0  0  0  0  0  0  0  0  0  0  0  0
  -16.0289  -24.3088  -25.0631 H   0  0  0  0  0  0  0  0  0  0  0  0
  -15.6110  -25.3634  -26.3774 H   0  0  0  0  0  0  0  0  0  0  0  0
  -12.5475  -22.9733  -25.8340 H   0  0  0  0  0  0  0  0  0  0  0  0
  -12.9786  -24.6668  -25.7243 H   0  0  0  0  0  0  0  0  0  0  0  0
  -13.5559  -23.5311  -24.5063 H   0  0  0  0  0  0  0  0  0  0  0  0
  1  2  2  0  0  0  0
  1  3  1  0  0  0  0
  1 24  1  0  0  0  0
  2  4  1  0  0  0  0
  2  5  1  0  0  0  0
  3  6  2  0  0  0  0
  3 25  1  0  0  0  0
  4  7  2  0  0  0  0
  4  8  1  0  0  0  0
  5 11  2  0  0  0  0
  6  7  1  0  0  0  0
  6 20  1  0  0  0  0
  7 21  1  0  0  0  0
  8  9  1  0  0  0  0
  8 10  2  0  0  0  0
  9 11  1  0  0  0  0
  9 26  1  0  0  0  0
 11 12  1  0  0  0  0
 12 13  2  0  0  0  0
 12 17  1  0  0  0  0
 13 14  1  0  0  0  0
 13 27  1  0  0  0  0
 14 15  2  0  0  0  0
 14 28  1  0  0  0  0
 15 16  1  0  0  0  0
 15 18  1  0  0  0  0
 16 17  2  0  0  0  0
 16 29  1  0  0  0  0
 17 30  1  0  0  0  0
 18 19  1  0  0  0  0
 18 22  1  0  0  0  0
 18 23  1  0  0  0  0
 19 31  1  0  0  0  0
 22 32  1  0  0  0  0
 22 33  1  0  0  0  0
 22 34  1  0  0  0  0
 23 35  1  0  0  0  0
 23 36  1  0  0  0  0
 23 37  1  0  0  0  0
M  END
>  <Name>
5j

>  <IC50[nM]>
7.5

$$$$
