@<TRIPOS>MOLECULE
5k
 37 39 0 0 0
SMALL
GASTEIGER
****
Structure written by MMmdl.
@<TRIPOS>ATOM
      1 C         -14.4532  -14.7787  -27.4312 C.ar    1  LIG1        0.1521
      2 C         -15.1418  -15.5967  -26.5280 C.ar    1  LIG1        0.1137
      3 C         -14.5909  -13.3992  -27.3291 C.ar    1  LIG1        0.0110
      4 C         -15.9826  -15.0410  -25.5537 C.ar    1  LIG1        0.0702
      5 N         -14.9735  -16.9774  -26.6084 N.ar    1  LIG1       -0.2261
      6 C         -15.4131  -12.8584  -26.3442 C.ar    1  LIG1        0.1270
      7 C         -16.1201  -13.6612  -25.4553 C.ar    1  LIG1       -0.0119
      8 C         -16.7396  -15.9720  -24.6306 C.ar    1  LIG1        0.2596
      9 N         -16.4336  -17.2753  -24.8698 N.ar    1  LIG1       -0.3064
     10 O         -17.5633  -15.6368  -23.7781 O.2     1  LIG1       -0.2671
     11 C         -15.5834  -17.7992  -25.8267 C.ar    1  LIG1        0.1415
     12 C         -15.4138  -19.2509  -25.9685 C.ar    1  LIG1        0.0174
     13 C         -15.7847  -20.1437  -24.9565 C.ar    1  LIG1       -0.0508
     14 C         -15.5471  -21.5021  -25.1160 C.ar    1  LIG1       -0.0552
     15 C         -14.9582  -21.9835  -26.2915 C.ar    1  LIG1       -0.0166
     16 C         -14.6239  -21.0987  -27.3099 C.ar    1  LIG1       -0.0552
     17 C         -14.8497  -19.7472  -27.1519 C.ar    1  LIG1       -0.0508
     18 C         -14.5900  -23.4561  -26.4138 C.3     1  LIG1        0.0854
     19 O         -14.2444  -23.8763  -27.7078 O.3     1  LIG1       -0.3845
     20 F         -13.6455  -15.3006  -28.3854 F       1  LIG1       -0.2031
     21 F         -15.5384  -11.5358  -26.2611 F       1  LIG1       -0.2054
     22 C         -15.7758  -24.3565  -26.1019 C.3     1  LIG1       -0.0321
     23 C         -13.3488  -23.6919  -25.5595 C.3     1  LIG1       -0.0321
     24 H         -14.0597  -12.7443  -28.0056 H       1  LIG1        0.0676
     25 H         -16.7581  -13.2074  -24.7085 H       1  LIG1        0.0654
     26 H         -16.9858  -17.9241  -24.3249 H       1  LIG1        0.1704
     27 H         -16.2302  -19.8058  -24.0320 H       1  LIG1        0.0625
     28 H         -15.7900  -22.1726  -24.3047 H       1  LIG1        0.0621
     29 H         -14.1524  -21.4456  -28.2174 H       1  LIG1        0.0621
     30 H         -14.5605  -19.0924  -27.9627 H       1  LIG1        0.0625
     31 H         -14.0247  -24.8146  -27.6747 H       1  LIG1        0.2106
     32 H         -16.6761  -24.0007  -26.6015 H       1  LIG1        0.0260
     33 H         -15.9684  -24.3857  -25.0310 H       1  LIG1        0.0260
     34 H         -15.6227  -25.3956  -26.4010 H       1  LIG1        0.0260
     35 H         -12.5457  -23.0123  -25.8405 H       1  LIG1        0.0260
     36 H         -12.9804  -24.7062  -25.6843 H       1  LIG1        0.0260
     37 H         -13.5498  -23.5431  -24.4981 H       1  LIG1        0.0260
@<TRIPOS>BOND
     1     1     2   ar
     2     1     3   ar
     3     1    20    1
     4     2     4   ar
     5     2     5   ar
     6     3     6   ar
     7     3    24    1
     8     4     7   ar
     9     4     8   ar
    10     5    11   ar
    11     6     7   ar
    12     6    21    1
    13     7    25    1
    14     8     9   ar
    15     8    10    2
    16     9    11   ar
    17     9    26    1
    18    11    12    1
    19    12    13   ar
    20    12    17   ar
    21    13    14   ar
    22    13    27    1
    23    14    15   ar
    24    14    28    1
    25    15    16   ar
    26    15    18    1
    27    16    17   ar
    28    16    29    1
    29    17    30    1
    30    18    19    1
    31    18    22    1
    32    18    23    1
    33    19    31    1
    34    22    32    1
    35    22    33    1
    36    22    34    1
    37    23    35    1
    38    23    36    1
    39    23    37    1
