5k
 OpenBabel03212213163D

 37 39  0  0  0  0  0  0  0  0999 V2000
  -14.4532  -14.7787  -27.4312 C   0  0  0  0  0  0  0  0  0  0  0  0
  -15.1418  -15.5967  -26.5280 C   0  0  0  0  0  0  0  0  0  0  0  0
  -14.5909  -13.3992  -27.3291 C   0  0  0  0  0  0  0  0  0  0  0  0
  -15.9826  -15.0410  -25.5537 C   0  0  0  0  0  0  0  0  0  0  0  0
  -14.9735  -16.9774  -26.6084 N   0  0  0  0  0  0  0  0  0  0  0  0
  -15.4131  -12.8584  -26.3442 C   0  0  0  0  0  0  0  0  0  0  0  0
  -16.1201  -13.6612  -25.4553 C   0  0  0  0  0  0  0  0  0  0  0  0
  -16.7396  -15.9720  -24.6306 C   0  0  0  0  0  0  0  0  0  0  0  0
  -16.4336  -17.2753  -24.8698 N   0  0  0  0  0  0  0  0  0  0  0  0
  -17.5633  -15.6368  -23.7781 O   0  0  0  0  0  0  0  0  0  0  0  0
  -15.5834  -17.7992  -25.8267 C   0  0  0  0  0  0  0  0  0  0  0  0
  -15.4138  -19.2509  -25.9685 C   0  0  0  0  0  0  0  0  0  0  0  0
  -15.7847  -20.1437  -24.9565 C   0  0  0  0  0  0  0  0  0  0  0  0
  -15.5471  -21.5021  -25.1160 C   0  0  0  0  0  0  0  0  0  0  0  0
  -14.9582  -21.9835  -26.2915 C   0  0  0  0  0  0  0  0  0  0  0  0
  -14.6239  -21.0987  -27.3099 C   0  0  0  0  0  0  0  0  0  0  0  0
  -14.8497  -19.7472  -27.1519 C   0  0  0  0  0  0  0  0  0  0  0  0
  -14.5900  -23.4561  -26.4138 C   0  0  0  0  0  0  0  0  0  0  0  0
  -14.2444  -23.8763  -27.7078 O   0  0  0  0  0  0  0  0  0  0  0  0
  -13.6455  -15.3006  -28.3854 F   0  0  0  0  0  0  0  0  0  0  0  0
  -15.5384  -11.5358  -26.2611 F   0  0  0  0  0  0  0  0  0  0  0  0
  -15.7758  -24.3565  -26.1019 C   0  0  0  0  0  0  0  0  0  0  0  0
  -13.3488  -23.6919  -25.5595 C   0  0  0  0  0  0  0  0  0  0  0  0
  -14.0597  -12.7443  -28.0056 H   0  0  0  0  0  0  0  0  0  0  0  0
  -16.7581  -13.2074  -24.7085 H   0  0  0  0  0  0  0  0  0  0  0  0
  -16.9858  -17.9241  -24.3249 H   0  0  0  0  0  0  0  0  0  0  0  0
  -16.2302  -19.8058  -24.0320 H   0  0  0  0  0  0  0  0  0  0  0  0
  -15.7900  -22.1726  -24.3047 H   0  0  0  0  0  0  0  0  0  0  0  0
  -14.1524  -21.4456  -28.2174 H   0  0  0  0  0  0  0  0  0  0  0  0
  -14.5605  -19.0924  -27.9627 H   0  0  0  0  0  0  0  0  0  0  0  0
  -14.0247  -24.8146  -27.6747 H   0  0  0  0  0  0  0  0  0  0  0  0
  -16.6761  -24.0007  -26.6015 H   0  0  0  0  0  0  0  0  0  0  0  0
  -15.9684  -24.3857  -25.0310 H   0  0  0  0  0  0  0  0  0  0  0  0
  -15.6227  -25.3956  -26.4010 H   0  0  0  0  0  0  0  0  0  0  0  0
  -12.5457  -23.0123  -25.8405 H   0  0  0  0  0  0  0  0  0  0  0  0
  -12.9804  -24.7062  -25.6843 H   0  0  0  0  0  0  0  0  0  0  0  0
  -13.5498  -23.5431  -24.4981 H   0  0  0  0  0  0  0  0  0  0  0  0
  1  2  2  0  0  0  0
  1  3  1  0  0  0  0
  1 20  1  0  0  0  0
  2  4  1  0  0  0  0
  2  5  1  0  0  0  0
  3  6  2  0  0  0  0
  3 24  1  0  0  0  0
  4  7  2  0  0  0  0
  4  8  1  0  0  0  0
  5 11  2  0  0  0  0
  6  7  1  0  0  0  0
  6 21  1  0  0  0  0
  7 25  1  0  0  0  0
  8  9  1  0  0  0  0
  8 10  2  0  0  0  0
  9 11  1  0  0  0  0
  9 26  1  0  0  0  0
 11 12  1  0  0  0  0
 12 13  2  0  0  0  0
 12 17  1  0  0  0  0
 13 14  1  0  0  0  0
 13 27  1  0  0  0  0
 14 15  2  0  0  0  0
 14 28  1  0  0  0  0
 15 16  1  0  0  0  0
 15 18  1  0  0  0  0
 16 17  2  0  0  0  0
 16 29  1  0  0  0  0
 17 30  1  0  0  0  0
 18 19  1  0  0  0  0
 18 22  1  0  0  0  0
 18 23  1  0  0  0  0
 19 31  1  0  0  0  0
 22 32  1  0  0  0  0
 22 33  1  0  0  0  0
 22 34  1  0  0  0  0
 23 35  1  0  0  0  0
 23 36  1  0  0  0  0
 23 37  1  0  0  0  0
M  END
>  <Name>
5k

>  <IC50[nM]>
9.2

>  <Total Formal Charge>
0.0

>  <Favorite_cresset>
false

>  <MW_cresset>
316.3

>  <#Atoms_cresset>
23

>  <SlogP_cresset>
3.9

>  <TPSA_cresset>
61.7

>  <Flexibility_cresset>
2.2

>  <#RB_cresset>
3

>  <Rof5_cresset>
0

>  <Filename_cresset>
ligands_tnks2.sdf

>  <Confs_cresset>
0

>  <Poses_cresset>
0

>  <Activity (Primary)_cresset>
No Primary Activity Set

$$$$
