@<TRIPOS>MOLECULE
5l
 37 39 0 0 0
SMALL
GASTEIGER
****
Structure written by MMmdl.
@<TRIPOS>ATOM
      1 C         -15.3002  -19.2006  -26.0265 C.ar    1  LIG1        0.0174
      2 C         -15.7139  -20.0866  -25.0199 C.ar    1  LIG1       -0.0508
      3 C         -14.7328  -19.7204  -27.1959 C.ar    1  LIG1       -0.0508
      4 C         -15.5262  -21.4548  -25.1704 C.ar    1  LIG1       -0.0552
      5 C         -14.5510  -21.0858  -27.3440 C.ar    1  LIG1       -0.0552
      6 N         -14.9761  -16.8867  -26.7340 N.ar    1  LIG1       -0.2260
      7 C         -14.9308  -21.9629  -26.3290 C.ar    1  LIG1       -0.0166
      8 C         -14.5881  -23.4511  -26.4179 C.3     1  LIG1        0.0854
      9 C         -16.5444  -15.9689  -24.5640 C.ar    1  LIG1        0.2623
     10 N         -16.1761  -17.2463  -24.8220 N.ar    1  LIG1       -0.3064
     11 C         -15.4513  -17.7394  -25.8850 C.ar    1  LIG1        0.1415
     12 O         -17.3758  -15.7040  -23.6992 O.2     1  LIG1       -0.2670
     13 C         -15.7761  -24.3593  -26.0992 C.3     1  LIG1       -0.0321
     14 O         -14.2360  -23.8967  -27.6992 O.3     1  LIG1       -0.3845
     15 C         -13.3505  -23.6941  -25.5581 C.3     1  LIG1       -0.0321
     16 C         -15.1508  -15.4985  -26.5840 C.ar    1  LIG1        0.1163
     17 C         -15.8726  -14.9888  -25.4979 C.ar    1  LIG1        0.1026
     18 C         -15.9461  -13.6145  -25.2800 C.ar    1  LIG1        0.1379
     19 C         -15.3326  -12.7448  -26.1831 C.ar    1  LIG1       -0.0228
     20 C         -14.6579  -13.2427  -27.2994 C.ar    1  LIG1       -0.0216
     21 C         -14.5674  -14.6209  -27.5072 C.ar    1  LIG1        0.1496
     22 F         -13.8810  -15.0871  -28.5782 F       1  LIG1       -0.2032
     23 F         -16.5760  -13.1269  -24.1896 F       1  LIG1       -0.2046
     24 H         -16.1615  -19.7384  -24.0998 H       1  LIG1        0.0625
     25 H         -14.4118  -19.0716  -27.9995 H       1  LIG1        0.0625
     26 H         -15.8081  -22.1136  -24.3616 H       1  LIG1        0.0621
     27 H         -14.0716  -21.4524  -28.2397 H       1  LIG1        0.0621
     28 H         -16.6579  -17.9163  -24.2374 H       1  LIG1        0.1704
     29 H         -16.6617  -24.0400  -26.6490 H       1  LIG1        0.0260
     30 H         -16.0045  -24.3593  -25.0354 H       1  LIG1        0.0260
     31 H         -15.5956  -25.4051  -26.3563 H       1  LIG1        0.0260
     32 H         -14.1133  -24.8528  -27.6650 H       1  LIG1        0.2106
     33 H         -12.5490  -23.0067  -25.8239 H       1  LIG1        0.0260
     34 H         -12.9761  -24.7077  -25.6991 H       1  LIG1        0.0260
     35 H         -13.5598  -23.5591  -24.4960 H       1  LIG1        0.0260
     36 H         -15.3724  -11.6781  -26.0178 H       1  LIG1        0.0647
     37 H         -14.1860  -12.5585  -27.9922 H       1  LIG1        0.0648
@<TRIPOS>BOND
     1     1     2   ar
     2     1     3   ar
     3     1    11    1
     4     2     4   ar
     5     2    24    1
     6     3     5   ar
     7     3    25    1
     8     4     7   ar
     9     4    26    1
    10     5     7   ar
    11     5    27    1
    12     6    11   ar
    13     6    16   ar
    14     7     8    1
    15     8    13    1
    16     8    14    1
    17     8    15    1
    18     9    10   ar
    19     9    12    2
    20     9    17   ar
    21    10    11   ar
    22    10    28    1
    23    13    29    1
    24    13    30    1
    25    13    31    1
    26    14    32    1
    27    15    33    1
    28    15    34    1
    29    15    35    1
    30    16    17   ar
    31    16    21   ar
    32    17    18   ar
    33    18    19   ar
    34    18    23    1
    35    19    20   ar
    36    19    36    1
    37    20    21   ar
    38    20    37    1
    39    21    22    1
