5l
 OpenBabel02152110423D
Structure written by MMmdl.
 37 39  0  0  1  0  0  0  0  0999 V2000
  -15.3002  -19.2006  -26.0265 C   0  0  0  0  0  0  0  0  0  0  0  0
  -15.7139  -20.0866  -25.0199 C   0  0  0  0  0  0  0  0  0  0  0  0
  -14.7328  -19.7204  -27.1959 C   0  0  0  0  0  0  0  0  0  0  0  0
  -15.5262  -21.4548  -25.1704 C   0  0  0  0  0  0  0  0  0  0  0  0
  -14.5510  -21.0858  -27.3440 C   0  0  0  0  0  0  0  0  0  0  0  0
  -14.9761  -16.8867  -26.7340 N   0  0  0  0  0  0  0  0  0  0  0  0
  -14.9308  -21.9629  -26.3290 C   0  0  0  0  0  0  0  0  0  0  0  0
  -14.5881  -23.4511  -26.4179 C   0  0  0  0  0  0  0  0  0  0  0  0
  -16.5444  -15.9689  -24.5640 C   0  0  0  0  0  0  0  0  0  0  0  0
  -16.1761  -17.2463  -24.8220 N   0  0  0  0  0  0  0  0  0  0  0  0
  -15.4513  -17.7394  -25.8850 C   0  0  0  0  0  0  0  0  0  0  0  0
  -17.3758  -15.7040  -23.6992 O   0  0  0  0  0  0  0  0  0  0  0  0
  -15.7761  -24.3593  -26.0992 C   0  0  0  0  0  0  0  0  0  0  0  0
  -14.2360  -23.8967  -27.6992 O   0  0  0  0  0  0  0  0  0  0  0  0
  -13.3505  -23.6941  -25.5581 C   0  0  0  0  0  0  0  0  0  0  0  0
  -15.1508  -15.4985  -26.5840 C   0  0  0  0  0  0  0  0  0  0  0  0
  -15.8726  -14.9888  -25.4979 C   0  0  0  0  0  0  0  0  0  0  0  0
  -15.9461  -13.6145  -25.2800 C   0  0  0  0  0  0  0  0  0  0  0  0
  -15.3326  -12.7448  -26.1831 C   0  0  0  0  0  0  0  0  0  0  0  0
  -14.6579  -13.2427  -27.2994 C   0  0  0  0  0  0  0  0  0  0  0  0
  -14.5674  -14.6209  -27.5072 C   0  0  0  0  0  0  0  0  0  0  0  0
  -13.8810  -15.0871  -28.5782 F   0  0  0  0  0  0  0  0  0  0  0  0
  -16.5760  -13.1269  -24.1896 F   0  0  0  0  0  0  0  0  0  0  0  0
  -16.1615  -19.7384  -24.0998 H   0  0  0  0  0  0  0  0  0  0  0  0
  -14.4118  -19.0716  -27.9995 H   0  0  0  0  0  0  0  0  0  0  0  0
  -15.8081  -22.1136  -24.3616 H   0  0  0  0  0  0  0  0  0  0  0  0
  -14.0716  -21.4524  -28.2397 H   0  0  0  0  0  0  0  0  0  0  0  0
  -16.6579  -17.9163  -24.2374 H   0  0  0  0  0  0  0  0  0  0  0  0
  -16.6617  -24.0400  -26.6490 H   0  0  0  0  0  0  0  0  0  0  0  0
  -16.0045  -24.3593  -25.0354 H   0  0  0  0  0  0  0  0  0  0  0  0
  -15.5956  -25.4051  -26.3563 H   0  0  0  0  0  0  0  0  0  0  0  0
  -14.1133  -24.8528  -27.6650 H   0  0  0  0  0  0  0  0  0  0  0  0
  -12.5490  -23.0067  -25.8239 H   0  0  0  0  0  0  0  0  0  0  0  0
  -12.9761  -24.7077  -25.6991 H   0  0  0  0  0  0  0  0  0  0  0  0
  -13.5598  -23.5591  -24.4960 H   0  0  0  0  0  0  0  0  0  0  0  0
  -15.3724  -11.6781  -26.0178 H   0  0  0  0  0  0  0  0  0  0  0  0
  -14.1860  -12.5585  -27.9922 H   0  0  0  0  0  0  0  0  0  0  0  0
  1  2  1  0  0  0  0
  1  3  2  0  0  0  0
  1 11  1  0  0  0  0
  2  4  2  0  0  0  0
  2 24  1  0  0  0  0
  3  5  1  0  0  0  0
  3 25  1  0  0  0  0
  4  7  1  0  0  0  0
  4 26  1  0  0  0  0
  5  7  2  0  0  0  0
  5 27  1  0  0  0  0
  6 11  2  0  0  0  0
  6 16  1  0  0  0  0
  7  8  1  0  0  0  0
  8 13  1  0  0  0  0
  8 14  1  0  0  0  0
  8 15  1  0  0  0  0
  9 10  1  0  0  0  0
  9 12  2  0  0  0  0
  9 17  1  0  0  0  0
 10 11  1  0  0  0  0
 10 28  1  0  0  0  0
 13 29  1  0  0  0  0
 13 30  1  0  0  0  0
 13 31  1  0  0  0  0
 14 32  1  0  0  0  0
 15 33  1  0  0  0  0
 15 34  1  0  0  0  0
 15 35  1  0  0  0  0
 16 17  2  0  0  0  0
 16 21  1  0  0  0  0
 17 18  1  0  0  0  0
 18 19  2  0  0  0  0
 18 23  1  0  0  0  0
 19 20  1  0  0  0  0
 19 36  1  0  0  0  0
 20 21  2  0  0  0  0
 20 37  1  0  0  0  0
 21 22  1  0  0  0  0
M  END
>  <Name>
5l

>  <IC50[nM]>
40

$$$$
