@<TRIPOS>MOLECULE
5m
 40 42 0 0 0
SMALL
GASTEIGER
****
Structure written by MMmdl.
@<TRIPOS>ATOM
      1 C         -15.3524  -19.2206  -25.9684 C.ar    1  LIG1        0.0174
      2 C         -14.6526  -19.7081  -27.0823 C.ar    1  LIG1       -0.0508
      3 C         -15.8555  -20.1235  -25.0241 C.ar    1  LIG1       -0.0508
      4 C         -14.4541  -21.0636  -27.2485 C.ar    1  LIG1       -0.0552
      5 C         -15.6357  -21.4854  -25.1840 C.ar    1  LIG1       -0.0552
      6 N         -15.0526  -16.9445  -26.6871 N.ar    1  LIG1       -0.2287
      7 C         -14.9347  -21.9631  -26.2988 C.ar    1  LIG1       -0.0166
      8 C         -14.5888  -23.4446  -26.4247 C.3     1  LIG1        0.0854
      9 C         -15.2162  -15.5610  -26.5929 C.ar    1  LIG1        0.0816
     10 C         -15.9031  -15.0059  -25.5037 C.ar    1  LIG1        0.0677
     11 C         -15.4462  -12.8187  -26.3599 C.ar    1  LIG1        0.1245
     12 C         -14.7773  -13.3552  -27.4525 C.ar    1  LIG1       -0.0215
     13 C         -16.0203  -13.6235  -25.3815 C.ar    1  LIG1       -0.0121
     14 C         -14.6768  -14.7359  -27.5934 C.ar    1  LIG1       -0.0216
     15 C         -16.5313  -15.9392  -24.4895 C.ar    1  LIG1        0.2596
     16 N         -16.2584  -17.2435  -24.7671 N.ar    1  LIG1       -0.3064
     17 C         -15.5317  -17.7669  -25.8203 C.ar    1  LIG1        0.1414
     18 O         -17.2406  -15.6098  -23.5374 O.2     1  LIG1       -0.2671
     19 C         -15.7674  -24.3602  -26.0940 C.3     1  LIG1       -0.0321
     20 O         -14.2652  -23.8414  -27.7410 O.3     1  LIG1       -0.3845
     21 C         -13.3585  -23.6997  -25.5565 C.3     1  LIG1       -0.0321
     22 C         -13.9802  -15.2817  -28.8279 C.3     1  LIG1       -0.0376
     23 F         -15.5606  -11.4961  -26.2801 F       1  LIG1       -0.2055
     24 H         -14.2525  -19.0464  -27.8382 H       1  LIG1        0.0625
     25 H         -16.3981  -19.7943  -24.1510 H       1  LIG1        0.0625
     26 H         -13.8938  -21.4078  -28.1049 H       1  LIG1        0.0621
     27 H         -15.9903  -22.1635  -24.4209 H       1  LIG1        0.0621
     28 H         -14.3604  -12.6891  -28.1964 H       1  LIG1        0.0649
     29 H         -16.5458  -13.1713  -24.5494 H       1  LIG1        0.0654
     30 H         -16.7352  -17.8915  -24.1540 H       1  LIG1        0.1704
     31 H         -16.6293  -24.0551  -26.6777 H       1  LIG1        0.0260
     32 H         -16.0069  -24.3345  -25.0330 H       1  LIG1        0.0260
     33 H         -15.5729  -25.4035  -26.3467 H       1  LIG1        0.0260
     34 H         -14.0509  -24.7825  -27.7322 H       1  LIG1        0.2106
     35 H         -12.5192  -23.0885  -25.8861 H       1  LIG1        0.0260
     36 H         -13.0630  -24.7313  -25.6290 H       1  LIG1        0.0260
     37 H         -13.5418  -23.4778  -24.5056 H       1  LIG1        0.0260
     38 H         -14.0711  -14.5965  -29.6735 H       1  LIG1        0.0278
     39 H         -14.4139  -16.2335  -29.1342 H       1  LIG1        0.0278
     40 H         -12.9197  -15.4294  -28.6265 H       1  LIG1        0.0278
@<TRIPOS>BOND
     1     1     2   ar
     2     1     3   ar
     3     1    17    1
     4     2     4   ar
     5     2    24    1
     6     3     5   ar
     7     3    25    1
     8     4     7   ar
     9     4    26    1
    10     5     7   ar
    11     5    27    1
    12     6     9   ar
    13     6    17   ar
    14     7     8    1
    15     8    19    1
    16     8    20    1
    17     8    21    1
    18     9    10   ar
    19     9    14   ar
    20    10    13   ar
    21    10    15   ar
    22    11    12   ar
    23    11    13   ar
    24    11    23    1
    25    12    14   ar
    26    12    28    1
    27    13    29    1
    28    14    22    1
    29    15    16   ar
    30    15    18    2
    31    16    17   ar
    32    16    30    1
    33    19    31    1
    34    19    32    1
    35    19    33    1
    36    20    34    1
    37    21    35    1
    38    21    36    1
    39    21    37    1
    40    22    38    1
    41    22    39    1
    42    22    40    1
