5m
 OpenBabel02152110423D
Structure written by MMmdl.
 40 42  0  0  1  0  0  0  0  0999 V2000
  -15.3524  -19.2206  -25.9684 C   0  0  0  0  0  0  0  0  0  0  0  0
  -14.6526  -19.7081  -27.0823 C   0  0  0  0  0  0  0  0  0  0  0  0
  -15.8555  -20.1235  -25.0241 C   0  0  0  0  0  0  0  0  0  0  0  0
  -14.4541  -21.0636  -27.2485 C   0  0  0  0  0  0  0  0  0  0  0  0
  -15.6357  -21.4854  -25.1840 C   0  0  0  0  0  0  0  0  0  0  0  0
  -15.0526  -16.9445  -26.6871 N   0  0  0  0  0  0  0  0  0  0  0  0
  -14.9347  -21.9631  -26.2988 C   0  0  0  0  0  0  0  0  0  0  0  0
  -14.5888  -23.4446  -26.4247 C   0  0  0  0  0  0  0  0  0  0  0  0
  -15.2162  -15.5610  -26.5929 C   0  0  0  0  0  0  0  0  0  0  0  0
  -15.9031  -15.0059  -25.5037 C   0  0  0  0  0  0  0  0  0  0  0  0
  -15.4462  -12.8187  -26.3599 C   0  0  0  0  0  0  0  0  0  0  0  0
  -14.7773  -13.3552  -27.4525 C   0  0  0  0  0  0  0  0  0  0  0  0
  -16.0203  -13.6235  -25.3815 C   0  0  0  0  0  0  0  0  0  0  0  0
  -14.6768  -14.7359  -27.5934 C   0  0  0  0  0  0  0  0  0  0  0  0
  -16.5313  -15.9392  -24.4895 C   0  0  0  0  0  0  0  0  0  0  0  0
  -16.2584  -17.2435  -24.7671 N   0  0  0  0  0  0  0  0  0  0  0  0
  -15.5317  -17.7669  -25.8203 C   0  0  0  0  0  0  0  0  0  0  0  0
  -17.2406  -15.6098  -23.5374 O   0  0  0  0  0  0  0  0  0  0  0  0
  -15.7674  -24.3602  -26.0940 C   0  0  0  0  0  0  0  0  0  0  0  0
  -14.2652  -23.8414  -27.7410 O   0  0  0  0  0  0  0  0  0  0  0  0
  -13.3585  -23.6997  -25.5565 C   0  0  0  0  0  0  0  0  0  0  0  0
  -13.9802  -15.2817  -28.8279 C   0  0  0  0  0  0  0  0  0  0  0  0
  -15.5606  -11.4961  -26.2801 F   0  0  0  0  0  0  0  0  0  0  0  0
  -14.2525  -19.0464  -27.8382 H   0  0  0  0  0  0  0  0  0  0  0  0
  -16.3981  -19.7943  -24.1510 H   0  0  0  0  0  0  0  0  0  0  0  0
  -13.8938  -21.4078  -28.1049 H   0  0  0  0  0  0  0  0  0  0  0  0
  -15.9903  -22.1635  -24.4209 H   0  0  0  0  0  0  0  0  0  0  0  0
  -14.3604  -12.6891  -28.1964 H   0  0  0  0  0  0  0  0  0  0  0  0
  -16.5458  -13.1713  -24.5494 H   0  0  0  0  0  0  0  0  0  0  0  0
  -16.7352  -17.8915  -24.1540 H   0  0  0  0  0  0  0  0  0  0  0  0
  -16.6293  -24.0551  -26.6777 H   0  0  0  0  0  0  0  0  0  0  0  0
  -16.0069  -24.3345  -25.0330 H   0  0  0  0  0  0  0  0  0  0  0  0
  -15.5729  -25.4035  -26.3467 H   0  0  0  0  0  0  0  0  0  0  0  0
  -14.0509  -24.7825  -27.7322 H   0  0  0  0  0  0  0  0  0  0  0  0
  -12.5192  -23.0885  -25.8861 H   0  0  0  0  0  0  0  0  0  0  0  0
  -13.0630  -24.7313  -25.6290 H   0  0  0  0  0  0  0  0  0  0  0  0
  -13.5418  -23.4778  -24.5056 H   0  0  0  0  0  0  0  0  0  0  0  0
  -14.0711  -14.5965  -29.6735 H   0  0  0  0  0  0  0  0  0  0  0  0
  -14.4139  -16.2335  -29.1342 H   0  0  0  0  0  0  0  0  0  0  0  0
  -12.9197  -15.4294  -28.6265 H   0  0  0  0  0  0  0  0  0  0  0  0
  1  2  1  0  0  0  0
  1  3  2  0  0  0  0
  1 17  1  0  0  0  0
  2  4  2  0  0  0  0
  2 24  1  0  0  0  0
  3  5  1  0  0  0  0
  3 25  1  0  0  0  0
  4  7  1  0  0  0  0
  4 26  1  0  0  0  0
  5  7  2  0  0  0  0
  5 27  1  0  0  0  0
  6  9  1  0  0  0  0
  6 17  2  0  0  0  0
  7  8  1  0  0  0  0
  8 19  1  0  0  0  0
  8 20  1  0  0  0  0
  8 21  1  0  0  0  0
  9 10  2  0  0  0  0
  9 14  1  0  0  0  0
 10 13  1  0  0  0  0
 10 15  1  0  0  0  0
 11 12  1  0  0  0  0
 11 13  2  0  0  0  0
 11 23  1  0  0  0  0
 12 14  2  0  0  0  0
 12 28  1  0  0  0  0
 13 29  1  0  0  0  0
 14 22  1  0  0  0  0
 15 16  1  0  0  0  0
 15 18  2  0  0  0  0
 16 17  1  0  0  0  0
 16 30  1  0  0  0  0
 19 31  1  0  0  0  0
 19 32  1  0  0  0  0
 19 33  1  0  0  0  0
 20 34  1  0  0  0  0
 21 35  1  0  0  0  0
 21 36  1  0  0  0  0
 21 37  1  0  0  0  0
 22 38  1  0  0  0  0
 22 39  1  0  0  0  0
 22 40  1  0  0  0  0
M  END
>  <Name>
5m

>  <IC50[nM]>
0.5

$$$$
