@<TRIPOS>MOLECULE
5n
 44 46 0 0 0
SMALL
GASTEIGER
****
Structure written by MMmdl.
@<TRIPOS>ATOM
      1 C         -15.1971  -19.2586  -25.9604 C.ar    1  LIG1        0.0174
      2 C         -15.4619  -20.0875  -24.8625 C.ar    1  LIG1       -0.0508
      3 C         -14.7320  -19.8457  -27.1467 C.ar    1  LIG1       -0.0508
      4 C         -15.3732  -17.7885  -25.8846 C.ar    1  LIG1        0.1414
      5 C         -15.2356  -21.4582  -24.9463 C.ar    1  LIG1       -0.0552
      6 C         -14.5189  -21.2175  -27.2320 C.ar    1  LIG1       -0.0552
      7 C         -14.7643  -22.0441  -26.1317 C.ar    1  LIG1       -0.0164
      8 N         -16.1228  -17.2312  -24.8599 N.ar    1  LIG1       -0.3064
      9 C         -16.3920  -15.9186  -24.6105 C.ar    1  LIG1        0.2596
     10 N         -14.8661  -16.9841  -26.7605 N.ar    1  LIG1       -0.2290
     11 C         -15.0231  -15.5933  -26.6800 C.ar    1  LIG1        0.0787
     12 C         -15.7490  -15.0059  -25.6350 C.ar    1  LIG1        0.0674
     13 C         -15.8668  -13.6148  -25.5520 C.ar    1  LIG1       -0.0121
     14 C         -15.2558  -12.8198  -26.5261 C.ar    1  LIG1        0.1243
     15 C         -14.5498  -13.4080  -27.5783 C.ar    1  LIG1       -0.0244
     16 C         -14.4351  -14.7960  -27.6619 C.ar    1  LIG1       -0.0328
     17 O         -17.0983  -15.5613  -23.6650 O.2     1  LIG1       -0.2671
     18 C         -14.4776  -23.5653  -26.1895 C.3     1  LIG1        0.0889
     19 C         -15.7149  -24.3179  -25.6602 C.3     1  LIG1       -0.0319
     20 C         -13.2176  -23.8359  -25.3472 C.3     1  LIG1       -0.0319
     21 O         -14.1517  -23.9464  -27.5429 O.3     1  LIG1       -0.3671
     22 F         -15.3497  -11.4734  -26.4630 F       1  LIG1       -0.2055
     23 C         -14.5501  -25.2004  -28.1255 C.3     1  LIG1        0.0719
     24 C         -13.9103  -26.4874  -27.5451 C.3     1  LIG1        0.0676
     25 O         -12.5968  -26.7509  -28.0034 O.3     1  LIG1       -0.3927
     26 H         -15.8196  -19.6850  -23.9247 H       1  LIG1        0.0625
     27 H         -14.5225  -19.2408  -28.0188 H       1  LIG1        0.0625
     28 H         -15.4176  -22.0605  -24.0678 H       1  LIG1        0.0621
     29 H         -14.1391  -21.6264  -28.1554 H       1  LIG1        0.0621
     30 H         -16.6125  -17.8632  -24.2414 H       1  LIG1        0.1704
     31 H         -16.4177  -13.1519  -24.7449 H       1  LIG1        0.0654
     32 H         -14.0836  -12.7847  -28.3266 H       1  LIG1        0.0647
     33 H         -13.8819  -15.2499  -28.4711 H       1  LIG1        0.0640
     34 H         -15.8115  -24.1761  -24.5859 H       1  LIG1        0.0261
     35 H         -15.7466  -25.3887  -25.8320 H       1  LIG1        0.0261
     36 H         -16.5770  -23.9172  -26.1750 H       1  LIG1        0.0261
     37 H         -13.4391  -23.9417  -24.2857 H       1  LIG1        0.0261
     38 H         -12.5508  -22.9864  -25.4295 H       1  LIG1        0.0261
     39 H         -12.6588  -24.7122  -25.6687 H       1  LIG1        0.0261
     40 H         -14.3407  -25.1537  -29.1933 H       1  LIG1        0.0583
     41 H         -15.6352  -25.2750  -28.0624 H       1  LIG1        0.0583
     42 H         -14.5229  -27.3485  -27.8131 H       1  LIG1        0.0580
     43 H         -13.8881  -26.4540  -26.4637 H       1  LIG1        0.0580
     44 H         -12.6445  -27.1725  -28.8674 H       1  LIG1        0.2095
@<TRIPOS>BOND
     1     1     2   ar
     2     1     3   ar
     3     1     4    1
     4     2     5   ar
     5     2    26    1
     6     3     6   ar
     7     3    27    1
     8     4     8   ar
     9     4    10   ar
    10     5     7   ar
    11     5    28    1
    12     6     7   ar
    13     6    29    1
    14     7    18    1
    15     8     9   ar
    16     8    30    1
    17     9    12   ar
    18     9    17    2
    19    10    11   ar
    20    11    12   ar
    21    11    16   ar
    22    12    13   ar
    23    13    14   ar
    24    13    31    1
    25    14    15   ar
    26    14    22    1
    27    15    16   ar
    28    15    32    1
    29    16    33    1
    30    18    19    1
    31    18    20    1
    32    18    21    1
    33    19    34    1
    34    19    35    1
    35    19    36    1
    36    20    37    1
    37    20    38    1
    38    20    39    1
    39    21    23    1
    40    23    24    1
    41    23    40    1
    42    23    41    1
    43    24    25    1
    44    24    42    1
    45    24    43    1
    46    25    44    1
