5n
 OpenBabel03212213163D

 44 46  0  0  0  0  0  0  0  0999 V2000
  -15.1971  -19.2586  -25.9604 C   0  0  0  0  0  0  0  0  0  0  0  0
  -15.4619  -20.0875  -24.8625 C   0  0  0  0  0  0  0  0  0  0  0  0
  -14.7320  -19.8457  -27.1467 C   0  0  0  0  0  0  0  0  0  0  0  0
  -15.3732  -17.7885  -25.8846 C   0  0  0  0  0  0  0  0  0  0  0  0
  -15.2356  -21.4582  -24.9463 C   0  0  0  0  0  0  0  0  0  0  0  0
  -14.5189  -21.2175  -27.2320 C   0  0  0  0  0  0  0  0  0  0  0  0
  -14.7643  -22.0441  -26.1317 C   0  0  0  0  0  0  0  0  0  0  0  0
  -16.1228  -17.2312  -24.8599 N   0  0  0  0  0  0  0  0  0  0  0  0
  -16.3920  -15.9186  -24.6105 C   0  0  0  0  0  0  0  0  0  0  0  0
  -14.8661  -16.9841  -26.7605 N   0  0  0  0  0  0  0  0  0  0  0  0
  -15.0231  -15.5933  -26.6800 C   0  0  0  0  0  0  0  0  0  0  0  0
  -15.7490  -15.0059  -25.6350 C   0  0  0  0  0  0  0  0  0  0  0  0
  -15.8668  -13.6148  -25.5520 C   0  0  0  0  0  0  0  0  0  0  0  0
  -15.2558  -12.8198  -26.5261 C   0  0  0  0  0  0  0  0  0  0  0  0
  -14.5498  -13.4080  -27.5783 C   0  0  0  0  0  0  0  0  0  0  0  0
  -14.4351  -14.7960  -27.6619 C   0  0  0  0  0  0  0  0  0  0  0  0
  -17.0983  -15.5613  -23.6650 O   0  0  0  0  0  0  0  0  0  0  0  0
  -14.4776  -23.5653  -26.1895 C   0  0  0  0  0  0  0  0  0  0  0  0
  -15.7149  -24.3179  -25.6602 C   0  0  0  0  0  0  0  0  0  0  0  0
  -13.2176  -23.8359  -25.3472 C   0  0  0  0  0  0  0  0  0  0  0  0
  -14.1517  -23.9464  -27.5429 O   0  0  0  0  0  0  0  0  0  0  0  0
  -15.3497  -11.4734  -26.4630 F   0  0  0  0  0  0  0  0  0  0  0  0
  -14.5501  -25.2004  -28.1255 C   0  0  0  0  0  0  0  0  0  0  0  0
  -13.9103  -26.4874  -27.5451 C   0  0  0  0  0  0  0  0  0  0  0  0
  -12.5968  -26.7509  -28.0034 O   0  0  0  0  0  0  0  0  0  0  0  0
  -15.8196  -19.6850  -23.9247 H   0  0  0  0  0  0  0  0  0  0  0  0
  -14.5225  -19.2408  -28.0188 H   0  0  0  0  0  0  0  0  0  0  0  0
  -15.4176  -22.0605  -24.0678 H   0  0  0  0  0  0  0  0  0  0  0  0
  -14.1391  -21.6264  -28.1554 H   0  0  0  0  0  0  0  0  0  0  0  0
  -16.6125  -17.8632  -24.2414 H   0  0  0  0  0  0  0  0  0  0  0  0
  -16.4177  -13.1519  -24.7449 H   0  0  0  0  0  0  0  0  0  0  0  0
  -14.0836  -12.7847  -28.3266 H   0  0  0  0  0  0  0  0  0  0  0  0
  -13.8819  -15.2499  -28.4711 H   0  0  0  0  0  0  0  0  0  0  0  0
  -15.8115  -24.1761  -24.5859 H   0  0  0  0  0  0  0  0  0  0  0  0
  -15.7466  -25.3887  -25.8320 H   0  0  0  0  0  0  0  0  0  0  0  0
  -16.5770  -23.9172  -26.1750 H   0  0  0  0  0  0  0  0  0  0  0  0
  -13.4391  -23.9417  -24.2857 H   0  0  0  0  0  0  0  0  0  0  0  0
  -12.5508  -22.9864  -25.4295 H   0  0  0  0  0  0  0  0  0  0  0  0
  -12.6588  -24.7122  -25.6687 H   0  0  0  0  0  0  0  0  0  0  0  0
  -14.3407  -25.1537  -29.1933 H   0  0  0  0  0  0  0  0  0  0  0  0
  -15.6352  -25.2750  -28.0624 H   0  0  0  0  0  0  0  0  0  0  0  0
  -14.5229  -27.3485  -27.8131 H   0  0  0  0  0  0  0  0  0  0  0  0
  -13.8881  -26.4540  -26.4637 H   0  0  0  0  0  0  0  0  0  0  0  0
  -12.6445  -27.1725  -28.8674 H   0  0  0  0  0  0  0  0  0  0  0  0
  1  2  2  0  0  0  0
  1  3  1  0  0  0  0
  1  4  1  0  0  0  0
  2  5  1  0  0  0  0
  2 26  1  0  0  0  0
  3  6  2  0  0  0  0
  3 27  1  0  0  0  0
  4  8  1  0  0  0  0
  4 10  2  0  0  0  0
  5  7  2  0  0  0  0
  5 28  1  0  0  0  0
  6  7  1  0  0  0  0
  6 29  1  0  0  0  0
  7 18  1  0  0  0  0
  8  9  1  0  0  0  0
  8 30  1  0  0  0  0
  9 12  1  0  0  0  0
  9 17  2  0  0  0  0
 10 11  1  0  0  0  0
 11 12  2  0  0  0  0
 11 16  1  0  0  0  0
 12 13  1  0  0  0  0
 13 14  2  0  0  0  0
 13 31  1  0  0  0  0
 14 15  1  0  0  0  0
 14 22  1  0  0  0  0
 15 16  2  0  0  0  0
 15 32  1  0  0  0  0
 16 33  1  0  0  0  0
 18 19  1  0  0  0  0
 18 20  1  0  0  0  0
 18 21  1  0  0  0  0
 19 34  1  0  0  0  0
 19 35  1  0  0  0  0
 19 36  1  0  0  0  0
 20 37  1  0  0  0  0
 20 38  1  0  0  0  0
 20 39  1  0  0  0  0
 21 23  1  0  0  0  0
 23 24  1  0  0  0  0
 23 40  1  0  0  0  0
 23 41  1  0  0  0  0
 24 25  1  0  0  0  0
 24 42  1  0  0  0  0
 24 43  1  0  0  0  0
 25 44  1  0  0  0  0
M  END
>  <Name>
5n

>  <IC50[nM]>
14

>  <Total Formal Charge>
0.0

>  <Favorite_cresset>
false

>  <MW_cresset>
342.4

>  <#Atoms_cresset>
25

>  <SlogP_cresset>
3.5

>  <TPSA_cresset>
70.9

>  <Flexibility_cresset>
5.2

>  <#RB_cresset>
6

>  <Rof5_cresset>
0

>  <Filename_cresset>
ligands_tnks2.sdf

>  <Confs_cresset>
0

>  <Poses_cresset>
0

>  <Activity (Primary)_cresset>
No Primary Activity Set

$$$$
