5o
 OpenBabel03212213163D

 47 49  0  0  0  0  0  0  0  0999 V2000
  -15.3450  -19.1365  -26.0277 C   0  0  0  0  0  0  0  0  0  0  0  0
  -15.8287  -20.0041  -25.0403 C   0  0  0  0  0  0  0  0  0  0  0  0
  -14.6494  -19.6781  -27.1161 C   0  0  0  0  0  0  0  0  0  0  0  0
  -15.6114  -21.3734  -25.1437 C   0  0  0  0  0  0  0  0  0  0  0  0
  -14.4534  -21.0504  -27.2249 C   0  0  0  0  0  0  0  0  0  0  0  0
  -15.0797  -16.8396  -26.7962 N   0  0  0  0  0  0  0  0  0  0  0  0
  -14.9411  -21.9202  -26.2491 C   0  0  0  0  0  0  0  0  0  0  0  0
  -14.7174  -23.4472  -26.3565 C   0  0  0  0  0  0  0  0  0  0  0  0
  -15.2121  -15.4451  -26.6641 C   0  0  0  0  0  0  0  0  0  0  0  0
  -15.8856  -14.9026  -25.5597 C   0  0  0  0  0  0  0  0  0  0  0  0
  -15.4771  -12.6758  -26.3957 C   0  0  0  0  0  0  0  0  0  0  0  0
  -14.8064  -13.2106  -27.4898 C   0  0  0  0  0  0  0  0  0  0  0  0
  -16.0203  -13.5169  -25.4209 C   0  0  0  0  0  0  0  0  0  0  0  0
  -14.6721  -14.5903  -27.6396 C   0  0  0  0  0  0  0  0  0  0  0  0
  -16.4601  -15.8518  -24.5285 C   0  0  0  0  0  0  0  0  0  0  0  0
  -16.2181  -17.1526  -24.8371 N   0  0  0  0  0  0  0  0  0  0  0  0
  -15.5316  -17.6723  -25.9177 C   0  0  0  0  0  0  0  0  0  0  0  0
  -17.0968  -15.5416  -23.5233 O   0  0  0  0  0  0  0  0  0  0  0  0
  -16.0886  -24.1459  -26.3732 C   0  0  0  0  0  0  0  0  0  0  0  0
  -13.9745  -23.7493  -27.5590 O   0  0  0  0  0  0  0  0  0  0  0  0
  -13.8348  -23.8741  -25.1800 C   0  0  0  0  0  0  0  0  0  0  0  0
  -13.9391  -15.1231  -28.8574 C   0  0  0  0  0  0  0  0  0  0  0  0
  -15.6115  -11.3343  -26.3138 F   0  0  0  0  0  0  0  0  0  0  0  0
  -12.5786  -23.4229  -27.6930 C   0  0  0  0  0  0  0  0  0  0  0  0
  -11.5993  -24.0909  -26.7047 C   0  0  0  0  0  0  0  0  0  0  0  0
  -10.2664  -23.7087  -26.9378 O   0  0  0  0  0  0  0  0  0  0  0  0
  -16.3593  -19.6397  -24.1712 H   0  0  0  0  0  0  0  0  0  0  0  0
  -14.2603  -19.0378  -27.8948 H   0  0  0  0  0  0  0  0  0  0  0  0
  -15.9770  -21.9973  -24.3439 H   0  0  0  0  0  0  0  0  0  0  0  0
  -13.9076  -21.4302  -28.0753 H   0  0  0  0  0  0  0  0  0  0  0  0
  -14.3905  -12.5391  -28.2267 H   0  0  0  0  0  0  0  0  0  0  0  0
  -16.5404  -13.0953  -24.5734 H   0  0  0  0  0  0  0  0  0  0  0  0
  -16.6563  -17.8081  -24.2063 H   0  0  0  0  0  0  0  0  0  0  0  0
  -16.6433  -24.0186  -25.4478 H   0  0  0  0  0  0  0  0  0  0  0  0
  -16.0953  -25.2082  -26.5876 H   0  0  0  0  0  0  0  0  0  0  0  0
  -16.6148  -23.6851  -27.1907 H   0  0  0  0  0  0  0  0  0  0  0  0
  -14.3494  -23.7841  -24.2225 H   0  0  0  0  0  0  0  0  0  0  0  0
  -12.9787  -23.2079  -25.1484 H   0  0  0  0  0  0  0  0  0  0  0  0
  -13.4451  -24.8835  -25.2653 H   0  0  0  0  0  0  0  0  0  0  0  0
  -13.7952  -14.3631  -29.6261 H   0  0  0  0  0  0  0  0  0  0  0  0
  -14.5198  -15.9337  -29.2895 H   0  0  0  0  0  0  0  0  0  0  0  0
  -12.9647  -15.5167  -28.5732 H   0  0  0  0  0  0  0  0  0  0  0  0
  -12.4676  -22.3457  -27.5952 H   0  0  0  0  0  0  0  0  0  0  0  0
  -12.2697  -23.6429  -28.7147 H   0  0  0  0  0  0  0  0  0  0  0  0
  -11.6557  -25.1731  -26.8146 H   0  0  0  0  0  0  0  0  0  0  0  0
  -11.8403  -23.8769  -25.6698 H   0  0  0  0  0  0  0  0  0  0  0  0
  -10.1870  -22.7599  -26.8041 H   0  0  0  0  0  0  0  0  0  0  0  0
  1  2  2  0  0  0  0
  1  3  1  0  0  0  0
  1 17  1  0  0  0  0
  2  4  1  0  0  0  0
  2 27  1  0  0  0  0
  3  5  2  0  0  0  0
  3 28  1  0  0  0  0
  4  7  2  0  0  0  0
  4 29  1  0  0  0  0
  5  7  1  0  0  0  0
  5 30  1  0  0  0  0
  6  9  1  0  0  0  0
  6 17  2  0  0  0  0
  7  8  1  0  0  0  0
  8 19  1  0  0  0  0
  8 20  1  0  0  0  0
  8 21  1  0  0  0  0
  9 10  2  0  0  0  0
  9 14  1  0  0  0  0
 10 13  1  0  0  0  0
 10 15  1  0  0  0  0
 11 12  1  0  0  0  0
 11 13  2  0  0  0  0
 11 23  1  0  0  0  0
 12 14  2  0  0  0  0
 12 31  1  0  0  0  0
 13 32  1  0  0  0  0
 14 22  1  0  0  0  0
 15 16  1  0  0  0  0
 15 18  2  0  0  0  0
 16 17  1  0  0  0  0
 16 33  1  0  0  0  0
 19 34  1  0  0  0  0
 19 35  1  0  0  0  0
 19 36  1  0  0  0  0
 20 24  1  0  0  0  0
 21 37  1  0  0  0  0
 21 38  1  0  0  0  0
 21 39  1  0  0  0  0
 22 40  1  0  0  0  0
 22 41  1  0  0  0  0
 22 42  1  0  0  0  0
 24 25  1  0  0  0  0
 24 43  1  0  0  0  0
 24 44  1  0  0  0  0
 25 26  1  0  0  0  0
 25 45  1  0  0  0  0
 25 46  1  0  0  0  0
 26 47  1  0  0  0  0
M  END
>  <Name>
5o

>  <IC50[nM]>
1.5

>  <Total Formal Charge>
0.0

>  <Favorite_cresset>
false

>  <MW_cresset>
356.4

>  <#Atoms_cresset>
26

>  <SlogP_cresset>
3.9

>  <TPSA_cresset>
70.9

>  <Flexibility_cresset>
5.2

>  <#RB_cresset>
6

>  <Rof5_cresset>
0

>  <Filename_cresset>
ligands_tnks2.sdf

>  <Confs_cresset>
0

>  <Poses_cresset>
0

>  <Activity (Primary)_cresset>
No Primary Activity Set

$$$$
