@<TRIPOS>MOLECULE
5p
 47 49 0 0 0
SMALL
GASTEIGER
****
Structure written by MMmdl.
@<TRIPOS>ATOM
      1 C         -15.1391  -19.1877  -26.0186 C.ar    1  LIG1        0.0174
      2 C         -15.5010  -20.0128  -24.9471 C.ar    1  LIG1       -0.0508
      3 C         -14.5525  -19.7739  -27.1523 C.ar    1  LIG1       -0.0508
      4 C         -15.3503  -17.7235  -25.9544 C.ar    1  LIG1        0.1414
      5 C         -15.2829  -21.3817  -25.0113 C.ar    1  LIG1       -0.0552
      6 C         -14.3643  -21.1508  -27.2261 C.ar    1  LIG1       -0.0552
      7 C         -14.7323  -21.9756  -26.1583 C.ar    1  LIG1       -0.0164
      8 N         -16.1184  -17.1836  -24.9340 N.ar    1  LIG1       -0.3064
      9 C         -16.3992  -15.8795  -24.6695 C.ar    1  LIG1        0.2596
     10 N         -14.8462  -16.9083  -26.8217 N.ar    1  LIG1       -0.2290
     11 C         -15.0124  -15.5202  -26.7198 C.ar    1  LIG1        0.0787
     12 C         -15.7518  -14.9489  -25.6748 C.ar    1  LIG1        0.0674
     13 C         -15.8744  -13.5587  -25.5758 C.ar    1  LIG1       -0.0121
     14 C         -15.2543  -12.7508  -26.5345 C.ar    1  LIG1        0.1243
     15 C         -14.5303  -13.3235  -27.5816 C.ar    1  LIG1       -0.0244
     16 C         -14.4104  -14.7092  -27.6795 C.ar    1  LIG1       -0.0328
     17 O         -17.1164  -15.5510  -23.7222 O.2     1  LIG1       -0.2671
     18 C         -14.4845  -23.5033  -26.2094 C.3     1  LIG1        0.0889
     19 O         -14.2410  -23.9010  -27.5752 O.3     1  LIG1       -0.3670
     20 F         -15.3500  -11.4050  -26.4634 F       1  LIG1       -0.2055
     21 C         -14.6693  -25.1645  -28.1103 C.3     1  LIG1        0.0721
     22 C         -13.9892  -26.4251  -27.5377 C.3     1  LIG1        0.0707
     23 O         -12.6044  -26.5401  -27.8382 O.3     1  LIG1       -0.3807
     24 C         -12.3229  -27.1506  -29.0924 C.3     1  LIG1        0.0365
     25 C         -15.6962  -24.2267  -25.5810 C.3     1  LIG1       -0.0319
     26 C         -13.1775  -23.7773  -25.4569 C.3     1  LIG1       -0.0319
     27 H         -15.9389  -19.6120  -24.0438 H       1  LIG1        0.0625
     28 H         -14.2540  -19.1694  -27.9974 H       1  LIG1        0.0625
     29 H         -15.5470  -21.9658  -24.1433 H       1  LIG1        0.0621
     30 H         -13.9130  -21.5646  -28.1156 H       1  LIG1        0.0621
     31 H         -16.6018  -17.8247  -24.3203 H       1  LIG1        0.1704
     32 H         -16.4327  -13.1137  -24.7651 H       1  LIG1        0.0654
     33 H         -14.0553  -12.6884  -28.3147 H       1  LIG1        0.0647
     34 H         -13.8444  -15.1517  -28.4863 H       1  LIG1        0.0640
     35 H         -14.4895  -25.1509  -29.1832 H       1  LIG1        0.0583
     36 H         -15.7505  -25.2469  -28.0138 H       1  LIG1        0.0583
     37 H         -14.5352  -27.3238  -27.8299 H       1  LIG1        0.0582
     38 H         -14.0516  -26.3877  -26.4633 H       1  LIG1        0.0582
     39 H         -11.2445  -27.1849  -29.2440 H       1  LIG1        0.0524
     40 H         -12.7529  -26.5894  -29.9224 H       1  LIG1        0.0524
     41 H         -12.6953  -28.1753  -29.1292 H       1  LIG1        0.0524
     42 H         -15.7515  -24.0311  -24.5112 H       1  LIG1        0.0261
     43 H         -15.7512  -25.3036  -25.6753 H       1  LIG1        0.0261
     44 H         -16.5797  -23.8430  -26.0634 H       1  LIG1        0.0261
     45 H         -13.2909  -23.6779  -24.3763 H       1  LIG1        0.0261
     46 H         -12.4611  -23.0266  -25.7707 H       1  LIG1        0.0261
     47 H         -12.7391  -24.7495  -25.6787 H       1  LIG1        0.0261
@<TRIPOS>BOND
     1     1     2   ar
     2     1     3   ar
     3     1     4    1
     4     2     5   ar
     5     2    27    1
     6     3     6   ar
     7     3    28    1
     8     4     8   ar
     9     4    10   ar
    10     5     7   ar
    11     5    29    1
    12     6     7   ar
    13     6    30    1
    14     7    18    1
    15     8     9   ar
    16     8    31    1
    17     9    12   ar
    18     9    17    2
    19    10    11   ar
    20    11    12   ar
    21    11    16   ar
    22    12    13   ar
    23    13    14   ar
    24    13    32    1
    25    14    15   ar
    26    14    20    1
    27    15    16   ar
    28    15    33    1
    29    16    34    1
    30    18    19    1
    31    18    25    1
    32    18    26    1
    33    19    21    1
    34    21    22    1
    35    21    35    1
    36    21    36    1
    37    22    23    1
    38    22    37    1
    39    22    38    1
    40    23    24    1
    41    24    39    1
    42    24    40    1
    43    24    41    1
    44    25    42    1
    45    25    43    1
    46    25    44    1
    47    26    45    1
    48    26    46    1
    49    26    47    1
