5p
 OpenBabel03212213163D

 47 49  0  0  0  0  0  0  0  0999 V2000
  -15.1391  -19.1877  -26.0186 C   0  0  0  0  0  0  0  0  0  0  0  0
  -15.5010  -20.0128  -24.9471 C   0  0  0  0  0  0  0  0  0  0  0  0
  -14.5525  -19.7739  -27.1523 C   0  0  0  0  0  0  0  0  0  0  0  0
  -15.3503  -17.7235  -25.9544 C   0  0  0  0  0  0  0  0  0  0  0  0
  -15.2829  -21.3817  -25.0113 C   0  0  0  0  0  0  0  0  0  0  0  0
  -14.3643  -21.1508  -27.2261 C   0  0  0  0  0  0  0  0  0  0  0  0
  -14.7323  -21.9756  -26.1583 C   0  0  0  0  0  0  0  0  0  0  0  0
  -16.1184  -17.1836  -24.9340 N   0  0  0  0  0  0  0  0  0  0  0  0
  -16.3992  -15.8795  -24.6695 C   0  0  0  0  0  0  0  0  0  0  0  0
  -14.8462  -16.9083  -26.8217 N   0  0  0  0  0  0  0  0  0  0  0  0
  -15.0124  -15.5202  -26.7198 C   0  0  0  0  0  0  0  0  0  0  0  0
  -15.7518  -14.9489  -25.6748 C   0  0  0  0  0  0  0  0  0  0  0  0
  -15.8744  -13.5587  -25.5758 C   0  0  0  0  0  0  0  0  0  0  0  0
  -15.2543  -12.7508  -26.5345 C   0  0  0  0  0  0  0  0  0  0  0  0
  -14.5303  -13.3235  -27.5816 C   0  0  0  0  0  0  0  0  0  0  0  0
  -14.4104  -14.7092  -27.6795 C   0  0  0  0  0  0  0  0  0  0  0  0
  -17.1164  -15.5510  -23.7222 O   0  0  0  0  0  0  0  0  0  0  0  0
  -14.4845  -23.5033  -26.2094 C   0  0  0  0  0  0  0  0  0  0  0  0
  -14.2410  -23.9010  -27.5752 O   0  0  0  0  0  0  0  0  0  0  0  0
  -15.3500  -11.4050  -26.4634 F   0  0  0  0  0  0  0  0  0  0  0  0
  -14.6693  -25.1645  -28.1103 C   0  0  0  0  0  0  0  0  0  0  0  0
  -13.9892  -26.4251  -27.5377 C   0  0  0  0  0  0  0  0  0  0  0  0
  -12.6044  -26.5401  -27.8382 O   0  0  0  0  0  0  0  0  0  0  0  0
  -12.3229  -27.1506  -29.0924 C   0  0  0  0  0  0  0  0  0  0  0  0
  -15.6962  -24.2267  -25.5810 C   0  0  0  0  0  0  0  0  0  0  0  0
  -13.1775  -23.7773  -25.4569 C   0  0  0  0  0  0  0  0  0  0  0  0
  -15.9389  -19.6120  -24.0438 H   0  0  0  0  0  0  0  0  0  0  0  0
  -14.2540  -19.1694  -27.9974 H   0  0  0  0  0  0  0  0  0  0  0  0
  -15.5470  -21.9658  -24.1433 H   0  0  0  0  0  0  0  0  0  0  0  0
  -13.9130  -21.5646  -28.1156 H   0  0  0  0  0  0  0  0  0  0  0  0
  -16.6018  -17.8247  -24.3202 H   0  0  0  0  0  0  0  0  0  0  0  0
  -16.4327  -13.1137  -24.7651 H   0  0  0  0  0  0  0  0  0  0  0  0
  -14.0553  -12.6884  -28.3147 H   0  0  0  0  0  0  0  0  0  0  0  0
  -13.8444  -15.1517  -28.4863 H   0  0  0  0  0  0  0  0  0  0  0  0
  -14.4895  -25.1509  -29.1832 H   0  0  0  0  0  0  0  0  0  0  0  0
  -15.7505  -25.2469  -28.0138 H   0  0  0  0  0  0  0  0  0  0  0  0
  -14.5352  -27.3238  -27.8299 H   0  0  0  0  0  0  0  0  0  0  0  0
  -14.0516  -26.3877  -26.4633 H   0  0  0  0  0  0  0  0  0  0  0  0
  -11.2445  -27.1849  -29.2440 H   0  0  0  0  0  0  0  0  0  0  0  0
  -12.7529  -26.5894  -29.9224 H   0  0  0  0  0  0  0  0  0  0  0  0
  -12.6953  -28.1753  -29.1292 H   0  0  0  0  0  0  0  0  0  0  0  0
  -15.7515  -24.0311  -24.5112 H   0  0  0  0  0  0  0  0  0  0  0  0
  -15.7512  -25.3036  -25.6753 H   0  0  0  0  0  0  0  0  0  0  0  0
  -16.5797  -23.8430  -26.0634 H   0  0  0  0  0  0  0  0  0  0  0  0
  -13.2909  -23.6779  -24.3763 H   0  0  0  0  0  0  0  0  0  0  0  0
  -12.4611  -23.0266  -25.7707 H   0  0  0  0  0  0  0  0  0  0  0  0
  -12.7391  -24.7495  -25.6787 H   0  0  0  0  0  0  0  0  0  0  0  0
  1  2  2  0  0  0  0
  1  3  1  0  0  0  0
  1  4  1  0  0  0  0
  2  5  1  0  0  0  0
  2 27  1  0  0  0  0
  3  6  2  0  0  0  0
  3 28  1  0  0  0  0
  4  8  1  0  0  0  0
  4 10  2  0  0  0  0
  5  7  2  0  0  0  0
  5 29  1  0  0  0  0
  6  7  1  0  0  0  0
  6 30  1  0  0  0  0
  7 18  1  0  0  0  0
  8  9  1  0  0  0  0
  8 31  1  0  0  0  0
  9 12  1  0  0  0  0
  9 17  2  0  0  0  0
 10 11  1  0  0  0  0
 11 12  2  0  0  0  0
 11 16  1  0  0  0  0
 12 13  1  0  0  0  0
 13 14  2  0  0  0  0
 13 32  1  0  0  0  0
 14 15  1  0  0  0  0
 14 20  1  0  0  0  0
 15 16  2  0  0  0  0
 15 33  1  0  0  0  0
 16 34  1  0  0  0  0
 18 19  1  0  0  0  0
 18 25  1  0  0  0  0
 18 26  1  0  0  0  0
 19 21  1  0  0  0  0
 21 22  1  0  0  0  0
 21 35  1  0  0  0  0
 21 36  1  0  0  0  0
 22 23  1  0  0  0  0
 22 37  1  0  0  0  0
 22 38  1  0  0  0  0
 23 24  1  0  0  0  0
 24 39  1  0  0  0  0
 24 40  1  0  0  0  0
 24 41  1  0  0  0  0
 25 42  1  0  0  0  0
 25 43  1  0  0  0  0
 25 44  1  0  0  0  0
 26 45  1  0  0  0  0
 26 46  1  0  0  0  0
 26 47  1  0  0  0  0
M  END
>  <Name>
5p

>  <IC50[nM]>
20

>  <Total Formal Charge>
0.0

>  <Favorite_cresset>
false

>  <MW_cresset>
356.4

>  <#Atoms_cresset>
26

>  <SlogP_cresset>
3.8

>  <TPSA_cresset>
59.9

>  <Flexibility_cresset>
5.2

>  <#RB_cresset>
6

>  <Rof5_cresset>
0

>  <Filename_cresset>
ligands_tnks2.sdf

>  <Confs_cresset>
0

>  <Poses_cresset>
0

>  <Activity (Primary)_cresset>
No Primary Activity Set

$$$$
