@<TRIPOS>MOLECULE
7
 36 38 0 0 0
SMALL
GASTEIGER
****
Structure written by MMmdl.
@<TRIPOS>ATOM
      1 C         -15.1391  -19.1877  -26.0186 C.ar    1  LIG1        0.1061
      2 N         -15.5010  -20.0128  -24.9471 N.ar    1  LIG1       -0.2515
      3 C         -14.5525  -19.7739  -27.1523 C.ar    1  LIG1       -0.0323
      4 C         -15.3503  -17.7235  -25.9544 C.ar    1  LIG1        0.1598
      5 C         -15.2829  -21.3817  -25.0113 C.ar    1  LIG1        0.0342
      6 C         -14.3643  -21.1508  -27.2261 C.ar    1  LIG1       -0.0523
      7 C         -14.7323  -21.9756  -26.1583 C.ar    1  LIG1        0.0015
      8 N         -16.1184  -17.1836  -24.9340 N.ar    1  LIG1       -0.3052
      9 C         -16.3992  -15.8795  -24.6695 C.ar    1  LIG1        0.2596
     10 N         -14.8462  -16.9083  -26.8217 N.ar    1  LIG1       -0.2274
     11 C         -15.0124  -15.5202  -26.7198 C.ar    1  LIG1        0.0787
     12 C         -15.7518  -14.9489  -25.6748 C.ar    1  LIG1        0.0674
     13 C         -15.8744  -13.5587  -25.5758 C.ar    1  LIG1       -0.0121
     14 C         -15.2543  -12.7508  -26.5345 C.ar    1  LIG1        0.1243
     15 C         -14.5303  -13.3235  -27.5816 C.ar    1  LIG1       -0.0244
     16 C         -14.4104  -14.7092  -27.6795 C.ar    1  LIG1       -0.0328
     17 O         -17.1164  -15.5510  -23.7222 O.2     1  LIG1       -0.2671
     18 C         -14.4845  -23.5033  -26.2094 C.3     1  LIG1        0.0867
     19 O         -14.2410  -23.9010  -27.5752 O.3     1  LIG1       -0.3845
     20 F         -15.3500  -11.4050  -26.4634 F       1  LIG1       -0.2055
     21 C         -15.6962  -24.2267  -25.5810 C.3     1  LIG1       -0.0321
     22 C         -13.1775  -23.7773  -25.4569 C.3     1  LIG1       -0.0321
     23 H         -14.2540  -19.1694  -27.9974 H       1  LIG1        0.0640
     24 H         -15.5470  -21.9658  -24.1433 H       1  LIG1        0.0833
     25 H         -13.9130  -21.5646  -28.1156 H       1  LIG1        0.0622
     26 H         -16.6018  -17.8247  -24.3203 H       1  LIG1        0.1704
     27 H         -16.4327  -13.1137  -24.7651 H       1  LIG1        0.0654
     28 H         -14.0553  -12.6884  -28.3147 H       1  LIG1        0.0647
     29 H         -13.8444  -15.1517  -28.4863 H       1  LIG1        0.0640
     30 H         -15.7515  -24.0311  -24.5112 H       1  LIG1        0.0260
     31 H         -15.7512  -25.3036  -25.6753 H       1  LIG1        0.0260
     32 H         -16.5797  -23.8430  -26.0634 H       1  LIG1        0.0260
     33 H         -13.2909  -23.6779  -24.3763 H       1  LIG1        0.0260
     34 H         -12.4611  -23.0266  -25.7707 H       1  LIG1        0.0260
     35 H         -12.7391  -24.7495  -25.6787 H       1  LIG1        0.0260
     36 H         -14.0869  -24.8479  -27.6106 H       1  LIG1        0.2106
@<TRIPOS>BOND
     1     1     2   ar
     2     1     3   ar
     3     1     4    1
     4     2     5   ar
     5     3     6   ar
     6     3    23    1
     7     4     8   ar
     8     4    10   ar
     9     5     7   ar
    10     5    24    1
    11     6     7   ar
    12     6    25    1
    13     7    18    1
    14     8     9   ar
    15     8    26    1
    16     9    12   ar
    17     9    17    2
    18    10    11   ar
    19    11    12   ar
    20    11    16   ar
    21    12    13   ar
    22    13    14   ar
    23    13    27    1
    24    14    15   ar
    25    14    20    1
    26    15    16   ar
    27    15    28    1
    28    16    29    1
    29    18    19    1
    30    18    21    1
    31    18    22    1
    32    19    36    1
    33    21    30    1
    34    21    31    1
    35    21    32    1
    36    22    33    1
    37    22    34    1
    38    22    35    1
