@<TRIPOS>MOLECULE
8a
 45 48 0 0 0
SMALL
GASTEIGER
****
Structure written by MMmdl.
@<TRIPOS>ATOM
      1 C         -14.4976  -14.8078  -27.6041 C.ar    1  LIG1       -0.0328
      2 C         -15.0860  -15.6146  -26.6121 C.ar    1  LIG1        0.0787
      3 C         -14.5776  -13.4189  -27.4910 C.ar    1  LIG1       -0.0244
      4 C         -15.7974  -15.0175  -25.5617 C.ar    1  LIG1        0.0674
      5 N         -14.9497  -17.0161  -26.6693 N.ar    1  LIG1       -0.2290
      6 C         -15.2599  -12.8300  -26.4299 C.ar    1  LIG1        0.1243
      7 C         -15.8868  -13.6238  -25.4651 C.ar    1  LIG1       -0.0121
      8 C         -16.4709  -15.9214  -24.5493 C.ar    1  LIG1        0.2596
      9 N         -16.1516  -17.2326  -24.7414 N.ar    1  LIG1       -0.3064
     10 O         -17.2464  -15.5613  -23.6634 O.2     1  LIG1       -0.2671
     11 C         -15.4317  -17.8110  -25.7710 C.ar    1  LIG1        0.1414
     12 C         -15.2745  -19.2883  -25.8445 C.ar    1  LIG1        0.0175
     13 C         -14.7650  -19.8714  -27.0158 C.ar    1  LIG1       -0.0494
     14 C         -14.6263  -21.2503  -27.1285 C.ar    1  LIG1       -0.0400
     15 C         -14.9818  -22.0879  -26.0683 C.ar    1  LIG1        0.0300
     16 C         -15.4738  -21.5135  -24.8915 C.ar    1  LIG1       -0.0400
     17 C         -15.6247  -20.1316  -24.7809 C.ar    1  LIG1       -0.0494
     18 F         -15.3111  -11.4823  -26.3542 F       1  LIG1       -0.2055
     19 N         -14.9414  -23.4608  -26.2022 N.pl3   1  LIG1       -0.3198
     20 C         -16.1549  -23.9516  -26.9975 C.3     1  LIG1        0.0525
     21 C         -16.1562  -25.4776  -27.1371 C.3     1  LIG1       -0.0160
     22 N         -14.9559  -25.8533  -28.0095 N.4     1  LIG1        0.2353
     23 C         -13.6649  -25.5179  -27.2581 C.3     1  LIG1       -0.0160
     24 C         -13.6349  -24.0190  -26.8149 C.3     1  LIG1        0.0525
     25 C         -15.0017  -27.3550  -28.3866 C.3     1  LIG1       -0.0430
     26 H         -14.1111  -12.7839  -28.2306 H       1  LIG1        0.0647
     27 H         -16.4256  -13.1525  -24.6535 H       1  LIG1        0.0654
     28 H         -16.6444  -17.8520  -24.1113 H       1  LIG1        0.1704
     29 H         -14.4912  -19.2630  -27.8667 H       1  LIG1        0.0625
     30 H         -14.2683  -21.6534  -28.0631 H       1  LIG1        0.0636
     31 H         -15.7622  -22.1415  -24.0621 H       1  LIG1        0.0636
     32 H         -16.0195  -19.7338  -23.8570 H       1  LIG1        0.0625
     33 H         -16.1744  -23.5056  -27.9908 H       1  LIG1        0.0516
     34 H         -17.0548  -23.6031  -26.5107 H       1  LIG1        0.0516
     35 H         -16.0869  -25.9943  -26.1808 H       1  LIG1        0.0830
     36 H         -17.0436  -25.8381  -27.6479 H       1  LIG1        0.0830
     37 H         -13.6062  -26.2295  -26.4479 H       1  LIG1        0.0830
     38 H         -12.9176  -25.7930  -27.9867 H       1  LIG1        0.0830
     39 H         -13.3563  -23.4082  -27.6679 H       1  LIG1        0.0516
     40 H         -12.8301  -23.8764  -26.0908 H       1  LIG1        0.0516
     41 H         -14.1546  -27.5535  -29.0464 H       1  LIG1        0.0778
     42 H         -15.9427  -27.5530  -28.9013 H       1  LIG1        0.0778
     43 H         -14.9324  -27.9489  -27.4754 H       1  LIG1        0.0778
     44 H         -14.9940  -25.2862  -28.8479 H       1  LIG1        0.2032
     45 H         -13.9911  -15.2646  -28.4414 H       1  LIG1        0.0640
@<TRIPOS>BOND
     1     1     2   ar
     2     1     3   ar
     3     1    45    1
     4     2     4   ar
     5     2     5   ar
     6     3     6   ar
     7     3    26    1
     8     4     7   ar
     9     4     8   ar
    10     5    11   ar
    11     6     7   ar
    12     6    18    1
    13     7    27    1
    14     8     9   ar
    15     8    10    2
    16     9    11   ar
    17     9    28    1
    18    11    12    1
    19    12    13   ar
    20    12    17   ar
    21    13    14   ar
    22    13    29    1
    23    14    15   ar
    24    14    30    1
    25    15    16   ar
    26    15    19    1
    27    16    17   ar
    28    16    31    1
    29    17    32    1
    30    19    20    1
    31    19    24    1
    32    20    21    1
    33    20    33    1
    34    20    34    1
    35    21    22    1
    36    21    35    1
    37    21    36    1
    38    22    23    1
    39    22    25    1
    40    22    44    1
    41    23    24    1
    42    23    37    1
    43    23    38    1
    44    24    39    1
    45    24    40    1
    46    25    41    1
    47    25    42    1
    48    25    43    1
