8a
 OpenBabel02152110423D
Structure written by MMmdl.
 45 48  0  0  1  0  0  0  0  0999 V2000
  -14.4976  -14.8078  -27.6041 C   0  0  0  0  0  0  0  0  0  0  0  0
  -15.0860  -15.6146  -26.6121 C   0  0  0  0  0  0  0  0  0  0  0  0
  -14.5776  -13.4189  -27.4910 C   0  0  0  0  0  0  0  0  0  0  0  0
  -15.7974  -15.0175  -25.5617 C   0  0  0  0  0  0  0  0  0  0  0  0
  -14.9497  -17.0161  -26.6693 N   0  0  0  0  0  0  0  0  0  0  0  0
  -15.2599  -12.8300  -26.4299 C   0  0  0  0  0  0  0  0  0  0  0  0
  -15.8868  -13.6238  -25.4651 C   0  0  0  0  0  0  0  0  0  0  0  0
  -16.4709  -15.9214  -24.5493 C   0  0  0  0  0  0  0  0  0  0  0  0
  -16.1516  -17.2326  -24.7414 N   0  0  0  0  0  0  0  0  0  0  0  0
  -17.2464  -15.5613  -23.6634 O   0  0  0  0  0  0  0  0  0  0  0  0
  -15.4317  -17.8110  -25.7710 C   0  0  0  0  0  0  0  0  0  0  0  0
  -15.2745  -19.2883  -25.8445 C   0  0  0  0  0  0  0  0  0  0  0  0
  -14.7650  -19.8714  -27.0158 C   0  0  0  0  0  0  0  0  0  0  0  0
  -14.6263  -21.2503  -27.1285 C   0  0  0  0  0  0  0  0  0  0  0  0
  -14.9818  -22.0879  -26.0683 C   0  0  0  0  0  0  0  0  0  0  0  0
  -15.4738  -21.5135  -24.8915 C   0  0  0  0  0  0  0  0  0  0  0  0
  -15.6247  -20.1316  -24.7809 C   0  0  0  0  0  0  0  0  0  0  0  0
  -15.3111  -11.4823  -26.3542 F   0  0  0  0  0  0  0  0  0  0  0  0
  -14.9414  -23.4608  -26.2022 N   0  0  0  0  0  0  0  0  0  0  0  0
  -16.1549  -23.9516  -26.9975 C   0  0  0  0  0  0  0  0  0  0  0  0
  -16.1562  -25.4776  -27.1371 C   0  0  0  0  0  0  0  0  0  0  0  0
  -14.9559  -25.8533  -28.0095 N   0  3  0  0  0  0  0  0  0  0  0  0
  -13.6649  -25.5179  -27.2581 C   0  0  0  0  0  0  0  0  0  0  0  0
  -13.6349  -24.0190  -26.8149 C   0  0  0  0  0  0  0  0  0  0  0  0
  -15.0017  -27.3550  -28.3866 C   0  0  0  0  0  0  0  0  0  0  0  0
  -14.1111  -12.7839  -28.2306 H   0  0  0  0  0  0  0  0  0  0  0  0
  -16.4256  -13.1525  -24.6535 H   0  0  0  0  0  0  0  0  0  0  0  0
  -16.6444  -17.8520  -24.1113 H   0  0  0  0  0  0  0  0  0  0  0  0
  -14.4912  -19.2630  -27.8667 H   0  0  0  0  0  0  0  0  0  0  0  0
  -14.2683  -21.6534  -28.0631 H   0  0  0  0  0  0  0  0  0  0  0  0
  -15.7622  -22.1415  -24.0621 H   0  0  0  0  0  0  0  0  0  0  0  0
  -16.0195  -19.7338  -23.8570 H   0  0  0  0  0  0  0  0  0  0  0  0
  -16.1744  -23.5056  -27.9908 H   0  0  0  0  0  0  0  0  0  0  0  0
  -17.0548  -23.6031  -26.5107 H   0  0  0  0  0  0  0  0  0  0  0  0
  -16.0869  -25.9943  -26.1808 H   0  0  0  0  0  0  0  0  0  0  0  0
  -17.0436  -25.8381  -27.6479 H   0  0  0  0  0  0  0  0  0  0  0  0
  -13.6062  -26.2295  -26.4479 H   0  0  0  0  0  0  0  0  0  0  0  0
  -12.9176  -25.7930  -27.9867 H   0  0  0  0  0  0  0  0  0  0  0  0
  -13.3563  -23.4082  -27.6679 H   0  0  0  0  0  0  0  0  0  0  0  0
  -12.8301  -23.8764  -26.0908 H   0  0  0  0  0  0  0  0  0  0  0  0
  -14.1546  -27.5535  -29.0464 H   0  0  0  0  0  0  0  0  0  0  0  0
  -15.9427  -27.5530  -28.9013 H   0  0  0  0  0  0  0  0  0  0  0  0
  -14.9324  -27.9489  -27.4754 H   0  0  0  0  0  0  0  0  0  0  0  0
  -14.9940  -25.2862  -28.8479 H   0  0  0  0  0  0  0  0  0  0  0  0
  -13.9911  -15.2646  -28.4414 H   0  0  0  0  0  0  0  0  0  0  0  0
  1  2  2  0  0  0  0
  1  3  1  0  0  0  0
  1 45  1  0  0  0  0
  2  4  1  0  0  0  0
  2  5  1  0  0  0  0
  3  6  2  0  0  0  0
  3 26  1  0  0  0  0
  4  7  2  0  0  0  0
  4  8  1  0  0  0  0
  5 11  2  0  0  0  0
  6  7  1  0  0  0  0
  6 18  1  0  0  0  0
  7 27  1  0  0  0  0
  8  9  1  0  0  0  0
  8 10  2  0  0  0  0
  9 11  1  0  0  0  0
  9 28  1  0  0  0  0
 11 12  1  0  0  0  0
 12 13  2  0  0  0  0
 12 17  1  0  0  0  0
 13 14  1  0  0  0  0
 13 29  1  0  0  0  0
 14 15  2  0  0  0  0
 14 30  1  0  0  0  0
 15 16  1  0  0  0  0
 15 19  1  0  0  0  0
 16 17  2  0  0  0  0
 16 31  1  0  0  0  0
 17 32  1  0  0  0  0
 19 20  1  0  0  0  0
 19 24  1  0  0  0  0
 20 21  1  0  0  0  0
 20 33  1  0  0  0  0
 20 34  1  0  0  0  0
 21 22  1  0  0  0  0
 21 35  1  0  0  0  0
 21 36  1  0  0  0  0
 22 23  1  0  0  0  0
 22 25  1  0  0  0  0
 22 44  1  0  0  0  0
 23 24  1  0  0  0  0
 23 37  1  0  0  0  0
 23 38  1  0  0  0  0
 24 39  1  0  0  0  0
 24 40  1  0  0  0  0
 25 41  1  0  0  0  0
 25 42  1  0  0  0  0
 25 43  1  0  0  0  0
M  CHG  1  22   1
M  END
>  <Name>
8a

>  <IC50[nM]>
12

$$$$
