@<TRIPOS>MOLECULE
8c
 43 46 0 0 0
SMALL
GASTEIGER
****
Structure written by MMmdl.
@<TRIPOS>ATOM
      1 C         -14.7211  -14.6025  -27.6629 C.ar    1  LIG1        0.1521
      2 C         -15.2227  -15.4419  -26.6577 C.ar    1  LIG1        0.1137
      3 C         -14.8753  -13.2206  -27.5411 C.ar    1  LIG1        0.0110
      4 C         -15.9006  -14.8913  -25.5607 C.ar    1  LIG1        0.0702
      5 N         -15.0367  -16.8328  -26.7554 N.ar    1  LIG1       -0.2261
      6 C         -15.5348  -12.6758  -26.4366 C.ar    1  LIG1        0.1270
      7 C         -16.0572  -13.5069  -25.4443 C.ar    1  LIG1       -0.0119
      8 C         -16.4664  -15.8352  -24.5203 C.ar    1  LIG1        0.2596
      9 N         -16.1535  -17.1340  -24.7829 N.ar    1  LIG1       -0.3064
     10 O         -17.1585  -15.5152  -23.5539 O.2     1  LIG1       -0.2671
     11 C         -15.4774  -17.6632  -25.8670 C.ar    1  LIG1        0.1415
     12 C         -15.3194  -19.1319  -26.0027 C.ar    1  LIG1        0.0174
     13 C         -14.6738  -19.6479  -27.1346 C.ar    1  LIG1       -0.0508
     14 C         -14.5210  -21.0162  -27.3081 C.ar    1  LIG1       -0.0576
     15 C         -14.9958  -21.9117  -26.3456 C.ar    1  LIG1       -0.0439
     16 C         -15.6361  -21.4060  -25.2096 C.ar    1  LIG1       -0.0576
     17 C         -15.8086  -20.0317  -25.0439 C.ar    1  LIG1       -0.0508
     18 F         -14.0699  -15.1067  -28.7383 F       1  LIG1       -0.2031
     19 F         -15.6737  -11.3360  -26.3349 F       1  LIG1       -0.2054
     20 C         -14.8817  -23.4147  -26.5564 C.3     1  LIG1       -0.0063
     21 C         -16.2724  -24.0629  -26.5806 C.3     1  LIG1       -0.0056
     22 C         -16.1618  -25.5955  -26.6685 C.3     1  LIG1       -0.0331
     23 N         -15.3848  -26.1077  -25.5404 N.4     1  LIG1        0.2270
     24 C         -14.0195  -25.5854  -25.5808 C.3     1  LIG1       -0.0331
     25 C         -14.0367  -24.0524  -25.4454 C.3     1  LIG1       -0.0056
     26 H         -14.4760  -12.5688  -28.3035 H       1  LIG1        0.0676
     27 H         -16.5727  -13.0701  -24.5997 H       1  LIG1        0.0654
     28 H         -16.5893  -17.7842  -24.1422 H       1  LIG1        0.1704
     29 H         -14.2967  -18.9915  -27.9079 H       1  LIG1        0.0625
     30 H         -14.0472  -21.3597  -28.2139 H       1  LIG1        0.0621
     31 H         -16.0174  -22.0763  -24.4526 H       1  LIG1        0.0621
     32 H         -16.3278  -19.6857  -24.1613 H       1  LIG1        0.0625
     33 H         -14.3921  -23.5606  -27.5193 H       1  LIG1        0.0352
     34 H         -16.8293  -23.7815  -25.6869 H       1  LIG1        0.0323
     35 H         -16.8439  -23.6831  -27.4275 H       1  LIG1        0.0323
     36 H         -15.6993  -25.8939  -27.6093 H       1  LIG1        0.0814
     37 H         -17.1563  -26.0413  -26.6534 H       1  LIG1        0.0814
     38 H         -15.3470  -27.1149  -25.6055 H       1  LIG1        0.2013
     39 H         -13.5305  -25.8836  -26.5082 H       1  LIG1        0.0814
     40 H         -13.4414  -26.0237  -24.7672 H       1  LIG1        0.0814
     41 H         -14.4317  -23.7701  -24.4695 H       1  LIG1        0.0323
     42 H         -13.0186  -23.6650  -25.4853 H       1  LIG1        0.0323
     43 H         -15.8240  -25.8182  -24.6781 H       1  LIG1        0.2013
@<TRIPOS>BOND
     1     1     2   ar
     2     1     3   ar
     3     1    18    1
     4     2     4   ar
     5     2     5   ar
     6     3     6   ar
     7     3    26    1
     8     4     7   ar
     9     4     8   ar
    10     5    11   ar
    11     6     7   ar
    12     6    19    1
    13     7    27    1
    14     8     9   ar
    15     8    10    2
    16     9    11   ar
    17     9    28    1
    18    11    12    1
    19    12    13   ar
    20    12    17   ar
    21    13    14   ar
    22    13    29    1
    23    14    15   ar
    24    14    30    1
    25    15    16   ar
    26    15    20    1
    27    16    17   ar
    28    16    31    1
    29    17    32    1
    30    20    21    1
    31    20    25    1
    32    20    33    1
    33    21    22    1
    34    21    34    1
    35    21    35    1
    36    22    23    1
    37    22    36    1
    38    22    37    1
    39    23    24    1
    40    23    38    1
    41    23    43    1
    42    24    25    1
    43    24    39    1
    44    24    40    1
    45    25    41    1
    46    25    42    1
