8c
 OpenBabel02152110423D
Structure written by MMmdl.
 43 46  0  0  1  0  0  0  0  0999 V2000
  -14.7211  -14.6025  -27.6629 C   0  0  0  0  0  0  0  0  0  0  0  0
  -15.2227  -15.4419  -26.6577 C   0  0  0  0  0  0  0  0  0  0  0  0
  -14.8753  -13.2206  -27.5411 C   0  0  0  0  0  0  0  0  0  0  0  0
  -15.9006  -14.8913  -25.5607 C   0  0  0  0  0  0  0  0  0  0  0  0
  -15.0367  -16.8328  -26.7554 N   0  0  0  0  0  0  0  0  0  0  0  0
  -15.5348  -12.6758  -26.4366 C   0  0  0  0  0  0  0  0  0  0  0  0
  -16.0572  -13.5069  -25.4443 C   0  0  0  0  0  0  0  0  0  0  0  0
  -16.4664  -15.8352  -24.5203 C   0  0  0  0  0  0  0  0  0  0  0  0
  -16.1535  -17.1340  -24.7829 N   0  0  0  0  0  0  0  0  0  0  0  0
  -17.1585  -15.5152  -23.5539 O   0  0  0  0  0  0  0  0  0  0  0  0
  -15.4774  -17.6632  -25.8670 C   0  0  0  0  0  0  0  0  0  0  0  0
  -15.3194  -19.1319  -26.0027 C   0  0  0  0  0  0  0  0  0  0  0  0
  -14.6738  -19.6479  -27.1346 C   0  0  0  0  0  0  0  0  0  0  0  0
  -14.5210  -21.0162  -27.3081 C   0  0  0  0  0  0  0  0  0  0  0  0
  -14.9958  -21.9117  -26.3456 C   0  0  0  0  0  0  0  0  0  0  0  0
  -15.6361  -21.4060  -25.2096 C   0  0  0  0  0  0  0  0  0  0  0  0
  -15.8086  -20.0317  -25.0439 C   0  0  0  0  0  0  0  0  0  0  0  0
  -14.0699  -15.1067  -28.7383 F   0  0  0  0  0  0  0  0  0  0  0  0
  -15.6737  -11.3360  -26.3349 F   0  0  0  0  0  0  0  0  0  0  0  0
  -14.8817  -23.4147  -26.5564 C   0  0  0  0  0  0  0  0  0  0  0  0
  -16.2724  -24.0629  -26.5806 C   0  0  0  0  0  0  0  0  0  0  0  0
  -16.1618  -25.5955  -26.6685 C   0  0  0  0  0  0  0  0  0  0  0  0
  -15.3848  -26.1077  -25.5404 N   0  3  0  0  0  0  0  0  0  0  0  0
  -14.0195  -25.5854  -25.5808 C   0  0  0  0  0  0  0  0  0  0  0  0
  -14.0367  -24.0524  -25.4454 C   0  0  0  0  0  0  0  0  0  0  0  0
  -14.4760  -12.5688  -28.3035 H   0  0  0  0  0  0  0  0  0  0  0  0
  -16.5727  -13.0701  -24.5997 H   0  0  0  0  0  0  0  0  0  0  0  0
  -16.5893  -17.7842  -24.1422 H   0  0  0  0  0  0  0  0  0  0  0  0
  -14.2967  -18.9915  -27.9079 H   0  0  0  0  0  0  0  0  0  0  0  0
  -14.0472  -21.3597  -28.2139 H   0  0  0  0  0  0  0  0  0  0  0  0
  -16.0174  -22.0763  -24.4526 H   0  0  0  0  0  0  0  0  0  0  0  0
  -16.3278  -19.6857  -24.1613 H   0  0  0  0  0  0  0  0  0  0  0  0
  -14.3921  -23.5606  -27.5193 H   0  0  0  0  0  0  0  0  0  0  0  0
  -16.8293  -23.7815  -25.6869 H   0  0  0  0  0  0  0  0  0  0  0  0
  -16.8439  -23.6831  -27.4275 H   0  0  0  0  0  0  0  0  0  0  0  0
  -15.6993  -25.8939  -27.6093 H   0  0  0  0  0  0  0  0  0  0  0  0
  -17.1563  -26.0413  -26.6534 H   0  0  0  0  0  0  0  0  0  0  0  0
  -15.3470  -27.1149  -25.6055 H   0  0  0  0  0  0  0  0  0  0  0  0
  -13.5305  -25.8836  -26.5082 H   0  0  0  0  0  0  0  0  0  0  0  0
  -13.4414  -26.0237  -24.7672 H   0  0  0  0  0  0  0  0  0  0  0  0
  -14.4317  -23.7701  -24.4695 H   0  0  0  0  0  0  0  0  0  0  0  0
  -13.0186  -23.6650  -25.4853 H   0  0  0  0  0  0  0  0  0  0  0  0
  -15.8240  -25.8182  -24.6781 H   0  0  0  0  0  0  0  0  0  0  0  0
  1  2  2  0  0  0  0
  1  3  1  0  0  0  0
  1 18  1  0  0  0  0
  2  4  1  0  0  0  0
  2  5  1  0  0  0  0
  3  6  2  0  0  0  0
  3 26  1  0  0  0  0
  4  7  2  0  0  0  0
  4  8  1  0  0  0  0
  5 11  2  0  0  0  0
  6  7  1  0  0  0  0
  6 19  1  0  0  0  0
  7 27  1  0  0  0  0
  8  9  1  0  0  0  0
  8 10  2  0  0  0  0
  9 11  1  0  0  0  0
  9 28  1  0  0  0  0
 11 12  1  0  0  0  0
 12 13  2  0  0  0  0
 12 17  1  0  0  0  0
 13 14  1  0  0  0  0
 13 29  1  0  0  0  0
 14 15  2  0  0  0  0
 14 30  1  0  0  0  0
 15 16  1  0  0  0  0
 15 20  1  0  0  0  0
 16 17  2  0  0  0  0
 16 31  1  0  0  0  0
 17 32  1  0  0  0  0
 20 21  1  0  0  0  0
 20 25  1  0  0  0  0
 20 33  1  0  0  0  0
 21 22  1  0  0  0  0
 21 34  1  0  0  0  0
 21 35  1  0  0  0  0
 22 23  1  0  0  0  0
 22 36  1  0  0  0  0
 22 37  1  0  0  0  0
 23 24  1  0  0  0  0
 23 38  1  0  0  0  0
 23 43  1  0  0  0  0
 24 25  1  0  0  0  0
 24 39  1  0  0  0  0
 24 40  1  0  0  0  0
 25 41  1  0  0  0  0
 25 42  1  0  0  0  0
M  CHG  1  23   1
M  END
>  <Name>
8c

>  <IC50[nM]>
38

$$$$
