8d
 OpenBabel02152110423D
Structure written by MMmdl.
 46 49  0  0  1  0  0  0  0  0999 V2000
  -14.5244  -14.7755  -27.5404 C   0  0  0  0  0  0  0  0  0  0  0  0
  -15.1162  -15.5856  -26.5557 C   0  0  0  0  0  0  0  0  0  0  0  0
  -14.6126  -13.3870  -27.4243 C   0  0  0  0  0  0  0  0  0  0  0  0
  -15.8507  -14.9969  -25.5184 C   0  0  0  0  0  0  0  0  0  0  0  0
  -14.9512  -16.9828  -26.6050 N   0  0  0  0  0  0  0  0  0  0  0  0
  -15.3071  -12.8055  -26.3678 C   0  0  0  0  0  0  0  0  0  0  0  0
  -15.9466  -13.6049  -25.4160 C   0  0  0  0  0  0  0  0  0  0  0  0
  -16.5334  -15.9075  -24.5193 C   0  0  0  0  0  0  0  0  0  0  0  0
  -16.1785  -17.2137  -24.6942 N   0  0  0  0  0  0  0  0  0  0  0  0
  -17.3476  -15.5543  -23.6635 O   0  0  0  0  0  0  0  0  0  0  0  0
  -15.4432  -17.7838  -25.7187 C   0  0  0  0  0  0  0  0  0  0  0  0
  -15.2778  -19.2588  -25.8075 C   0  0  0  0  0  0  0  0  0  0  0  0
  -14.7706  -19.8268  -26.9878 C   0  0  0  0  0  0  0  0  0  0  0  0
  -14.6315  -21.2044  -27.1217 C   0  0  0  0  0  0  0  0  0  0  0  0
  -14.9891  -22.0562  -26.0731 C   0  0  0  0  0  0  0  0  0  0  0  0
  -15.4751  -21.4979  -24.8861 C   0  0  0  0  0  0  0  0  0  0  0  0
  -15.6240  -20.1168  -24.7536 C   0  0  0  0  0  0  0  0  0  0  0  0
  -13.7517  -15.3550  -28.7136 C   0  0  0  0  0  0  0  0  0  0  0  0
  -15.3512  -11.4588  -26.2838 F   0  0  0  0  0  0  0  0  0  0  0  0
  -14.9424  -23.5841  -26.2418 C   0  0  0  0  0  0  0  0  0  0  0  0
  -13.6275  -24.1410  -26.8461 C   0  0  0  0  0  0  0  0  0  0  0  0
  -13.6510  -25.6466  -27.2708 C   0  0  0  0  0  0  0  0  0  0  0  0
  -14.9478  -25.9976  -27.9976 N   0  3  0  0  0  0  0  0  0  0  0  0
  -16.1519  -25.5972  -27.1498 C   0  0  0  0  0  0  0  0  0  0  0  0
  -16.1496  -24.0686  -27.0565 C   0  0  0  0  0  0  0  0  0  0  0  0
  -14.1335  -12.7478  -28.1517 H   0  0  0  0  0  0  0  0  0  0  0  0
  -16.4955  -13.1480  -24.6047 H   0  0  0  0  0  0  0  0  0  0  0  0
  -16.6654  -17.8407  -24.0677 H   0  0  0  0  0  0  0  0  0  0  0  0
  -14.4992  -19.2033  -27.8299 H   0  0  0  0  0  0  0  0  0  0  0  0
  -14.2711  -21.5952  -28.0614 H   0  0  0  0  0  0  0  0  0  0  0  0
  -15.7622  -22.1352  -24.0637 H   0  0  0  0  0  0  0  0  0  0  0  0
  -16.0174  -19.7330  -23.8227 H   0  0  0  0  0  0  0  0  0  0  0  0
  -14.1988  -16.2900  -29.0479 H   0  0  0  0  0  0  0  0  0  0  0  0
  -12.7236  -15.5508  -28.4141 H   0  0  0  0  0  0  0  0  0  0  0  0
  -13.7339  -14.6772  -29.5672 H   0  0  0  0  0  0  0  0  0  0  0  0
  -15.0303  -23.9956  -25.2342 H   0  0  0  0  0  0  0  0  0  0  0  0
  -13.3518  -23.5408  -27.7063 H   0  0  0  0  0  0  0  0  0  0  0  0
  -12.8282  -23.9831  -26.1195 H   0  0  0  0  0  0  0  0  0  0  0  0
  -13.6092  -26.3608  -26.4633 H   0  0  0  0  0  0  0  0  0  0  0  0
  -12.8978  -25.9512  -27.9876 H   0  0  0  0  0  0  0  0  0  0  0  0
  -14.9695  -26.9907  -28.1948 H   0  0  0  0  0  0  0  0  0  0  0  0
  -16.0851  -26.0882  -26.1788 H   0  0  0  0  0  0  0  0  0  0  0  0
  -17.0202  -25.9948  -27.6634 H   0  0  0  0  0  0  0  0  0  0  0  0
  -16.1265  -23.6473  -28.0623 H   0  0  0  0  0  0  0  0  0  0  0  0
  -17.0653  -23.7009  -26.6092 H   0  0  0  0  0  0  0  0  0  0  0  0
  -14.9828  -25.4999  -28.8775 H   0  0  0  0  0  0  0  0  0  0  0  0
  1  2  2  0  0  0  0
  1  3  1  0  0  0  0
  1 18  1  0  0  0  0
  2  4  1  0  0  0  0
  2  5  1  0  0  0  0
  3  6  2  0  0  0  0
  3 26  1  0  0  0  0
  4  7  2  0  0  0  0
  4  8  1  0  0  0  0
  5 11  2  0  0  0  0
  6  7  1  0  0  0  0
  6 19  1  0  0  0  0
  7 27  1  0  0  0  0
  8  9  1  0  0  0  0
  8 10  2  0  0  0  0
  9 11  1  0  0  0  0
  9 28  1  0  0  0  0
 11 12  1  0  0  0  0
 12 13  2  0  0  0  0
 12 17  1  0  0  0  0
 13 14  1  0  0  0  0
 13 29  1  0  0  0  0
 14 15  2  0  0  0  0
 14 30  1  0  0  0  0
 15 16  1  0  0  0  0
 15 20  1  0  0  0  0
 16 17  2  0  0  0  0
 16 31  1  0  0  0  0
 17 32  1  0  0  0  0
 18 33  1  0  0  0  0
 18 34  1  0  0  0  0
 18 35  1  0  0  0  0
 20 21  1  0  0  0  0
 20 25  1  0  0  0  0
 20 36  1  0  0  0  0
 21 22  1  0  0  0  0
 21 37  1  0  0  0  0
 21 38  1  0  0  0  0
 22 23  1  0  0  0  0
 22 39  1  0  0  0  0
 22 40  1  0  0  0  0
 23 24  1  0  0  0  0
 23 41  1  0  0  0  0
 23 46  1  0  0  0  0
 24 25  1  0  0  0  0
 24 42  1  0  0  0  0
 24 43  1  0  0  0  0
 25 44  1  0  0  0  0
 25 45  1  0  0  0  0
M  CHG  1  23   1
M  END
>  <Name>
8d

>  <IC50[nM]>
0.7

$$$$
