@<TRIPOS>MOLECULE
8e
 46 49 0 0 0
SMALL
GASTEIGER
****
Structure written by MMmdl.
@<TRIPOS>ATOM
      1 C         -14.7440  -14.5488  -27.6397 C.ar    1  LIG1        0.1521
      2 C         -15.2222  -15.4109  -26.6401 C.ar    1  LIG1        0.1137
      3 C         -14.8591  -13.1692  -27.4748 C.ar    1  LIG1        0.0110
      4 C         -15.8582  -14.8736  -25.5086 C.ar    1  LIG1        0.0702
      5 N         -15.0518  -16.8036  -26.7731 N.ar    1  LIG1       -0.2261
      6 C         -15.4628  -12.6413  -26.3347 C.ar    1  LIG1        0.1270
      7 C         -15.9779  -13.4879  -25.3505 C.ar    1  LIG1       -0.0119
      8 C         -16.4074  -15.8323  -24.4721 C.ar    1  LIG1        0.2596
      9 N         -16.1816  -17.1328  -24.8095 N.ar    1  LIG1       -0.3064
     10 O         -17.0140  -15.5193  -23.4454 O.2     1  LIG1       -0.2671
     11 C         -15.4957  -17.6480  -25.8989 C.ar    1  LIG1        0.1415
     12 C         -15.3321  -19.1204  -26.0396 C.ar    1  LIG1        0.0174
     13 C         -15.8398  -19.9770  -25.0510 C.ar    1  LIG1       -0.0508
     14 C         -15.6725  -21.3559  -25.1428 C.ar    1  LIG1       -0.0576
     15 C         -15.0037  -21.9226  -26.2340 C.ar    1  LIG1       -0.0439
     16 C         -14.5169  -21.0751  -27.2353 C.ar    1  LIG1       -0.0576
     17 C         -14.6698  -19.6915  -27.1368 C.ar    1  LIG1       -0.0508
     18 F         -14.1579  -15.0195  -28.7614 F       1  LIG1       -0.2031
     19 F         -15.5478  -11.2992  -26.1973 F       1  LIG1       -0.2054
     20 C         -14.7101  -23.4149  -26.2936 C.3     1  LIG1       -0.0063
     21 C         -15.9534  -24.1911  -26.7469 C.3     1  LIG1       -0.0055
     22 C         -15.6342  -25.6857  -26.9262 C.3     1  LIG1       -0.0316
     23 N         -14.5516  -25.8523  -27.9018 N.4     1  LIG1        0.2331
     24 C         -13.3243  -25.2116  -27.4171 C.3     1  LIG1       -0.0316
     25 C         -13.5505  -23.6979  -27.2575 C.3     1  LIG1       -0.0055
     26 C         -14.2997  -27.2875  -28.1026 C.3     1  LIG1       -0.0431
     27 H         -14.4707  -12.5054  -28.2336 H       1  LIG1        0.0676
     28 H         -16.4556  -13.0654  -24.4762 H       1  LIG1        0.0654
     29 H         -16.6413  -17.7854  -24.1871 H       1  LIG1        0.1704
     30 H         -16.3480  -19.5775  -24.1847 H       1  LIG1        0.0625
     31 H         -16.0409  -21.9665  -24.3328 H       1  LIG1        0.0621
     32 H         -13.9848  -21.4818  -28.0842 H       1  LIG1        0.0621
     33 H         -14.2604  -19.0777  -27.9262 H       1  LIG1        0.0625
     34 H         -14.4329  -23.7212  -25.2849 H       1  LIG1        0.0352
     35 H         -16.7537  -24.0684  -26.0171 H       1  LIG1        0.0323
     36 H         -16.3288  -23.7780  -27.6831 H       1  LIG1        0.0323
     37 H         -16.5279  -26.2064  -27.2702 H       1  LIG1        0.0814
     38 H         -15.3598  -26.1293  -25.9692 H       1  LIG1        0.0814
     39 H         -12.5120  -25.3822  -28.1236 H       1  LIG1        0.0814
     40 H         -13.0131  -25.6477  -26.4678 H       1  LIG1        0.0814
     41 H         -12.6398  -23.2241  -26.8912 H       1  LIG1        0.0323
     42 H         -13.7573  -23.2503  -28.2296 H       1  LIG1        0.0323
     43 H         -15.2336  -27.7482  -28.4257 H       1  LIG1        0.0777
     44 H         -13.9580  -27.7278  -27.1672 H       1  LIG1        0.0777
     45 H         -13.5429  -27.3868  -28.8818 H       1  LIG1        0.0777
     46 H         -14.8253  -25.4208  -28.7730 H       1  LIG1        0.2030
@<TRIPOS>BOND
     1     1     2   ar
     2     1     3   ar
     3     1    18    1
     4     2     4   ar
     5     2     5   ar
     6     3     6   ar
     7     3    27    1
     8     4     7   ar
     9     4     8   ar
    10     5    11   ar
    11     6     7   ar
    12     6    19    1
    13     7    28    1
    14     8     9   ar
    15     8    10    2
    16     9    11   ar
    17     9    29    1
    18    11    12    1
    19    12    13   ar
    20    12    17   ar
    21    13    14   ar
    22    13    30    1
    23    14    15   ar
    24    14    31    1
    25    15    16   ar
    26    15    20    1
    27    16    17   ar
    28    16    32    1
    29    17    33    1
    30    20    21    1
    31    20    25    1
    32    20    34    1
    33    21    22    1
    34    21    35    1
    35    21    36    1
    36    22    23    1
    37    22    37    1
    38    22    38    1
    39    23    24    1
    40    23    26    1
    41    23    46    1
    42    24    25    1
    43    24    39    1
    44    24    40    1
    45    25    41    1
    46    25    42    1
    47    26    43    1
    48    26    44    1
    49    26    45    1
