8e
 OpenBabel02152110423D
Structure written by MMmdl.
 46 49  0  0  1  0  0  0  0  0999 V2000
  -14.7440  -14.5488  -27.6397 C   0  0  0  0  0  0  0  0  0  0  0  0
  -15.2222  -15.4109  -26.6401 C   0  0  0  0  0  0  0  0  0  0  0  0
  -14.8591  -13.1692  -27.4748 C   0  0  0  0  0  0  0  0  0  0  0  0
  -15.8582  -14.8736  -25.5086 C   0  0  0  0  0  0  0  0  0  0  0  0
  -15.0518  -16.8036  -26.7731 N   0  0  0  0  0  0  0  0  0  0  0  0
  -15.4628  -12.6413  -26.3347 C   0  0  0  0  0  0  0  0  0  0  0  0
  -15.9779  -13.4879  -25.3505 C   0  0  0  0  0  0  0  0  0  0  0  0
  -16.4074  -15.8323  -24.4721 C   0  0  0  0  0  0  0  0  0  0  0  0
  -16.1816  -17.1328  -24.8095 N   0  0  0  0  0  0  0  0  0  0  0  0
  -17.0140  -15.5193  -23.4454 O   0  0  0  0  0  0  0  0  0  0  0  0
  -15.4957  -17.6480  -25.8989 C   0  0  0  0  0  0  0  0  0  0  0  0
  -15.3321  -19.1204  -26.0396 C   0  0  0  0  0  0  0  0  0  0  0  0
  -15.8398  -19.9770  -25.0510 C   0  0  0  0  0  0  0  0  0  0  0  0
  -15.6725  -21.3559  -25.1428 C   0  0  0  0  0  0  0  0  0  0  0  0
  -15.0037  -21.9226  -26.2340 C   0  0  0  0  0  0  0  0  0  0  0  0
  -14.5169  -21.0751  -27.2353 C   0  0  0  0  0  0  0  0  0  0  0  0
  -14.6698  -19.6915  -27.1368 C   0  0  0  0  0  0  0  0  0  0  0  0
  -14.1579  -15.0195  -28.7614 F   0  0  0  0  0  0  0  0  0  0  0  0
  -15.5478  -11.2992  -26.1973 F   0  0  0  0  0  0  0  0  0  0  0  0
  -14.7101  -23.4149  -26.2936 C   0  0  1  0  0  0  0  0  0  0  0  0
  -15.9534  -24.1911  -26.7469 C   0  0  0  0  0  0  0  0  0  0  0  0
  -15.6342  -25.6857  -26.9262 C   0  0  0  0  0  0  0  0  0  0  0  0
  -14.5516  -25.8523  -27.9018 N   0  3  1  0  0  0  0  0  0  0  0  0
  -13.3243  -25.2116  -27.4171 C   0  0  0  0  0  0  0  0  0  0  0  0
  -13.5505  -23.6979  -27.2575 C   0  0  0  0  0  0  0  0  0  0  0  0
  -14.2997  -27.2875  -28.1026 C   0  0  0  0  0  0  0  0  0  0  0  0
  -14.4707  -12.5054  -28.2336 H   0  0  0  0  0  0  0  0  0  0  0  0
  -16.4556  -13.0654  -24.4762 H   0  0  0  0  0  0  0  0  0  0  0  0
  -16.6413  -17.7854  -24.1871 H   0  0  0  0  0  0  0  0  0  0  0  0
  -16.3480  -19.5775  -24.1847 H   0  0  0  0  0  0  0  0  0  0  0  0
  -16.0409  -21.9665  -24.3328 H   0  0  0  0  0  0  0  0  0  0  0  0
  -13.9848  -21.4818  -28.0842 H   0  0  0  0  0  0  0  0  0  0  0  0
  -14.2604  -19.0777  -27.9262 H   0  0  0  0  0  0  0  0  0  0  0  0
  -14.4329  -23.7212  -25.2849 H   0  0  0  0  0  0  0  0  0  0  0  0
  -16.7537  -24.0684  -26.0171 H   0  0  0  0  0  0  0  0  0  0  0  0
  -16.3288  -23.7780  -27.6831 H   0  0  0  0  0  0  0  0  0  0  0  0
  -16.5279  -26.2064  -27.2702 H   0  0  0  0  0  0  0  0  0  0  0  0
  -15.3598  -26.1293  -25.9692 H   0  0  0  0  0  0  0  0  0  0  0  0
  -12.5120  -25.3822  -28.1236 H   0  0  0  0  0  0  0  0  0  0  0  0
  -13.0131  -25.6477  -26.4678 H   0  0  0  0  0  0  0  0  0  0  0  0
  -12.6398  -23.2241  -26.8912 H   0  0  0  0  0  0  0  0  0  0  0  0
  -13.7573  -23.2503  -28.2296 H   0  0  0  0  0  0  0  0  0  0  0  0
  -15.2336  -27.7482  -28.4257 H   0  0  0  0  0  0  0  0  0  0  0  0
  -13.9580  -27.7278  -27.1672 H   0  0  0  0  0  0  0  0  0  0  0  0
  -13.5429  -27.3868  -28.8818 H   0  0  0  0  0  0  0  0  0  0  0  0
  -14.8253  -25.4208  -28.7730 H   0  0  0  0  0  0  0  0  0  0  0  0
  1  2  2  0  0  0  0
  1  3  1  0  0  0  0
  1 18  1  0  0  0  0
  2  4  1  0  0  0  0
  2  5  1  0  0  0  0
  3  6  2  0  0  0  0
  3 27  1  0  0  0  0
  4  7  2  0  0  0  0
  4  8  1  0  0  0  0
  5 11  2  0  0  0  0
  6  7  1  0  0  0  0
  6 19  1  0  0  0  0
  7 28  1  0  0  0  0
  8  9  1  0  0  0  0
  8 10  2  0  0  0  0
  9 11  1  0  0  0  0
  9 29  1  0  0  0  0
 11 12  1  0  0  0  0
 12 13  2  0  0  0  0
 12 17  1  0  0  0  0
 13 14  1  0  0  0  0
 13 30  1  0  0  0  0
 14 15  2  0  0  0  0
 14 31  1  0  0  0  0
 15 16  1  0  0  0  0
 15 20  1  0  0  0  0
 16 17  2  0  0  0  0
 16 32  1  0  0  0  0
 17 33  1  0  0  0  0
 20 21  1  0  0  0  0
 20 25  1  0  0  0  0
 20 34  1  1  0  0  0
 21 22  1  0  0  0  0
 21 35  1  0  0  0  0
 21 36  1  0  0  0  0
 22 23  1  0  0  0  0
 22 37  1  0  0  0  0
 22 38  1  0  0  0  0
 23 24  1  0  0  0  0
 23 26  1  0  0  0  0
 23 46  1  6  0  0  0
 24 25  1  0  0  0  0
 24 39  1  0  0  0  0
 24 40  1  0  0  0  0
 25 41  1  0  0  0  0
 25 42  1  0  0  0  0
 26 43  1  0  0  0  0
 26 44  1  0  0  0  0
 26 45  1  0  0  0  0
M  CHG  1  23   1
M  END
>  <Name>
8e

>  <IC50[nM]>
31

$$$$
