@<TRIPOS>MOLECULE
8f
 49 52 0 0 0
SMALL
GASTEIGER
****
Structure written by MMmdl.
@<TRIPOS>ATOM
      1 C         -14.4976  -14.8078  -27.6041 C.ar    1  LIG1       -0.0216
      2 C         -15.0860  -15.6146  -26.6121 C.ar    1  LIG1        0.0816
      3 C         -14.5776  -13.4189  -27.4910 C.ar    1  LIG1       -0.0215
      4 C         -15.7974  -15.0175  -25.5617 C.ar    1  LIG1        0.0677
      5 N         -14.9497  -17.0161  -26.6693 N.ar    1  LIG1       -0.2287
      6 C         -15.2599  -12.8300  -26.4299 C.ar    1  LIG1        0.1245
      7 C         -15.8868  -13.6238  -25.4651 C.ar    1  LIG1       -0.0121
      8 C         -16.4709  -15.9214  -24.5493 C.ar    1  LIG1        0.2596
      9 N         -16.1516  -17.2326  -24.7414 N.ar    1  LIG1       -0.3064
     10 O         -17.2464  -15.5613  -23.6634 O.2     1  LIG1       -0.2671
     11 C         -15.4317  -17.8110  -25.7710 C.ar    1  LIG1        0.1414
     12 C         -15.2745  -19.2883  -25.8445 C.ar    1  LIG1        0.0174
     13 C         -14.7650  -19.8714  -27.0158 C.ar    1  LIG1       -0.0508
     14 C         -14.6263  -21.2503  -27.1285 C.ar    1  LIG1       -0.0576
     15 C         -14.9818  -22.0879  -26.0683 C.ar    1  LIG1       -0.0439
     16 C         -15.4738  -21.5135  -24.8915 C.ar    1  LIG1       -0.0576
     17 C         -15.6247  -20.1316  -24.7809 C.ar    1  LIG1       -0.0508
     18 C         -13.7514  -15.3866  -28.7929 C.3     1  LIG1       -0.0376
     19 F         -15.3111  -11.4823  -26.3542 F       1  LIG1       -0.2055
     20 C         -14.9368  -23.6188  -26.2176 C.3     1  LIG1       -0.0063
     21 C         -16.1502  -24.1096  -27.0129 C.3     1  LIG1       -0.0055
     22 C         -16.1516  -25.6356  -27.1525 C.3     1  LIG1       -0.0316
     23 N         -14.9512  -26.0113  -28.0249 N.4     1  LIG1        0.2331
     24 C         -13.6603  -25.6760  -27.2735 C.3     1  LIG1       -0.0316
     25 C         -13.6303  -24.1771  -26.8303 C.3     1  LIG1       -0.0055
     26 C         -14.9970  -27.5130  -28.4020 C.3     1  LIG1       -0.0431
     27 H         -14.1111  -12.7839  -28.2306 H       1  LIG1        0.0649
     28 H         -16.4256  -13.1525  -24.6535 H       1  LIG1        0.0654
     29 H         -16.6444  -17.8520  -24.1113 H       1  LIG1        0.1704
     30 H         -14.4912  -19.2630  -27.8667 H       1  LIG1        0.0625
     31 H         -14.2683  -21.6534  -28.0631 H       1  LIG1        0.0621
     32 H         -15.7622  -22.1415  -24.0621 H       1  LIG1        0.0621
     33 H         -16.0195  -19.7338  -23.8570 H       1  LIG1        0.0625
     34 H         -14.1621  -16.3516  -29.0752 H       1  LIG1        0.0278
     35 H         -12.6990  -15.5158  -28.5462 H       1  LIG1        0.0278
     36 H         -13.8228  -14.7393  -29.6666 H       1  LIG1        0.0278
     37 H         -15.0135  -24.0196  -25.2058 H       1  LIG1        0.0352
     38 H         -16.1698  -23.6636  -28.0062 H       1  LIG1        0.0323
     39 H         -17.0502  -23.7611  -26.5261 H       1  LIG1        0.0323
     40 H         -16.0823  -26.1523  -26.1962 H       1  LIG1        0.0814
     41 H         -17.0390  -25.9961  -27.6633 H       1  LIG1        0.0814
     42 H         -13.6015  -26.3876  -26.4633 H       1  LIG1        0.0814
     43 H         -12.9129  -25.9511  -28.0021 H       1  LIG1        0.0814
     44 H         -13.3516  -23.5663  -27.6833 H       1  LIG1        0.0323
     45 H         -12.8254  -24.0344  -26.1062 H       1  LIG1        0.0323
     46 H         -14.1499  -27.7115  -29.0618 H       1  LIG1        0.0777
     47 H         -15.9380  -27.7110  -28.9167 H       1  LIG1        0.0777
     48 H         -14.9278  -28.1070  -27.4908 H       1  LIG1        0.0777
     49 H         -14.9894  -25.4443  -28.8633 H       1  LIG1        0.2030
@<TRIPOS>BOND
     1     1     2   ar
     2     1     3   ar
     3     1    18    1
     4     2     4   ar
     5     2     5   ar
     6     3     6   ar
     7     3    27    1
     8     4     7   ar
     9     4     8   ar
    10     5    11   ar
    11     6     7   ar
    12     6    19    1
    13     7    28    1
    14     8     9   ar
    15     8    10    2
    16     9    11   ar
    17     9    29    1
    18    11    12    1
    19    12    13   ar
    20    12    17   ar
    21    13    14   ar
    22    13    30    1
    23    14    15   ar
    24    14    31    1
    25    15    16   ar
    26    15    20    1
    27    16    17   ar
    28    16    32    1
    29    17    33    1
    30    18    34    1
    31    18    35    1
    32    18    36    1
    33    20    21    1
    34    20    25    1
    35    20    37    1
    36    21    22    1
    37    21    38    1
    38    21    39    1
    39    22    23    1
    40    22    40    1
    41    22    41    1
    42    23    24    1
    43    23    26    1
    44    23    49    1
    45    24    25    1
    46    24    42    1
    47    24    43    1
    48    25    44    1
    49    25    45    1
    50    26    46    1
    51    26    47    1
    52    26    48    1
