8f
 OpenBabel03212213163D

 49 52  0  0  0  0  0  0  0  0999 V2000
  -14.4976  -14.8078  -27.6041 C   0  0  0  0  0  0  0  0  0  0  0  0
  -15.0860  -15.6146  -26.6121 C   0  0  0  0  0  0  0  0  0  0  0  0
  -14.5776  -13.4189  -27.4910 C   0  0  0  0  0  0  0  0  0  0  0  0
  -15.7974  -15.0175  -25.5617 C   0  0  0  0  0  0  0  0  0  0  0  0
  -14.9497  -17.0161  -26.6693 N   0  0  0  0  0  0  0  0  0  0  0  0
  -15.2599  -12.8300  -26.4299 C   0  0  0  0  0  0  0  0  0  0  0  0
  -15.8868  -13.6238  -25.4651 C   0  0  0  0  0  0  0  0  0  0  0  0
  -16.4709  -15.9214  -24.5493 C   0  0  0  0  0  0  0  0  0  0  0  0
  -16.1516  -17.2326  -24.7414 N   0  0  0  0  0  0  0  0  0  0  0  0
  -17.2464  -15.5613  -23.6634 O   0  0  0  0  0  0  0  0  0  0  0  0
  -15.4317  -17.8110  -25.7710 C   0  0  0  0  0  0  0  0  0  0  0  0
  -15.2745  -19.2883  -25.8445 C   0  0  0  0  0  0  0  0  0  0  0  0
  -14.7650  -19.8714  -27.0158 C   0  0  0  0  0  0  0  0  0  0  0  0
  -14.6263  -21.2503  -27.1285 C   0  0  0  0  0  0  0  0  0  0  0  0
  -14.9818  -22.0879  -26.0683 C   0  0  0  0  0  0  0  0  0  0  0  0
  -15.4738  -21.5135  -24.8915 C   0  0  0  0  0  0  0  0  0  0  0  0
  -15.6247  -20.1316  -24.7809 C   0  0  0  0  0  0  0  0  0  0  0  0
  -13.7514  -15.3866  -28.7929 C   0  0  0  0  0  0  0  0  0  0  0  0
  -15.3111  -11.4823  -26.3542 F   0  0  0  0  0  0  0  0  0  0  0  0
  -14.9368  -23.6188  -26.2176 C   0  0  1  0  0  0  0  0  0  0  0  0
  -16.1502  -24.1096  -27.0129 C   0  0  0  0  0  0  0  0  0  0  0  0
  -16.1516  -25.6356  -27.1525 C   0  0  0  0  0  0  0  0  0  0  0  0
  -14.9512  -26.0113  -28.0249 N   0  3  1  0  0  0  0  0  0  0  0  0
  -13.6603  -25.6760  -27.2735 C   0  0  0  0  0  0  0  0  0  0  0  0
  -13.6303  -24.1771  -26.8303 C   0  0  0  0  0  0  0  0  0  0  0  0
  -14.9970  -27.5130  -28.4020 C   0  0  0  0  0  0  0  0  0  0  0  0
  -14.1111  -12.7839  -28.2306 H   0  0  0  0  0  0  0  0  0  0  0  0
  -16.4256  -13.1525  -24.6535 H   0  0  0  0  0  0  0  0  0  0  0  0
  -16.6444  -17.8520  -24.1113 H   0  0  0  0  0  0  0  0  0  0  0  0
  -14.4912  -19.2630  -27.8667 H   0  0  0  0  0  0  0  0  0  0  0  0
  -14.2683  -21.6534  -28.0631 H   0  0  0  0  0  0  0  0  0  0  0  0
  -15.7622  -22.1415  -24.0621 H   0  0  0  0  0  0  0  0  0  0  0  0
  -16.0195  -19.7338  -23.8570 H   0  0  0  0  0  0  0  0  0  0  0  0
  -14.1621  -16.3516  -29.0752 H   0  0  0  0  0  0  0  0  0  0  0  0
  -12.6990  -15.5158  -28.5462 H   0  0  0  0  0  0  0  0  0  0  0  0
  -13.8228  -14.7393  -29.6666 H   0  0  0  0  0  0  0  0  0  0  0  0
  -15.0135  -24.0196  -25.2058 H   0  0  0  0  0  0  0  0  0  0  0  0
  -16.1698  -23.6636  -28.0062 H   0  0  0  0  0  0  0  0  0  0  0  0
  -17.0502  -23.7611  -26.5261 H   0  0  0  0  0  0  0  0  0  0  0  0
  -16.0823  -26.1523  -26.1962 H   0  0  0  0  0  0  0  0  0  0  0  0
  -17.0390  -25.9961  -27.6633 H   0  0  0  0  0  0  0  0  0  0  0  0
  -13.6015  -26.3876  -26.4633 H   0  0  0  0  0  0  0  0  0  0  0  0
  -12.9129  -25.9511  -28.0021 H   0  0  0  0  0  0  0  0  0  0  0  0
  -13.3516  -23.5663  -27.6833 H   0  0  0  0  0  0  0  0  0  0  0  0
  -12.8254  -24.0344  -26.1062 H   0  0  0  0  0  0  0  0  0  0  0  0
  -14.1499  -27.7115  -29.0618 H   0  0  0  0  0  0  0  0  0  0  0  0
  -15.9380  -27.7110  -28.9167 H   0  0  0  0  0  0  0  0  0  0  0  0
  -14.9278  -28.1070  -27.4908 H   0  0  0  0  0  0  0  0  0  0  0  0
  -14.9894  -25.4443  -28.8633 H   0  0  0  0  0  0  0  0  0  0  0  0
  1  2  2  0  0  0  0
  1  3  1  0  0  0  0
  1 18  1  0  0  0  0
  2  4  1  0  0  0  0
  2  5  1  0  0  0  0
  3  6  2  0  0  0  0
  3 27  1  0  0  0  0
  4  7  2  0  0  0  0
  4  8  1  0  0  0  0
  5 11  2  0  0  0  0
  6  7  1  0  0  0  0
  6 19  1  0  0  0  0
  7 28  1  0  0  0  0
  8  9  1  0  0  0  0
  8 10  2  0  0  0  0
  9 11  1  0  0  0  0
  9 29  1  0  0  0  0
 11 12  1  0  0  0  0
 12 13  2  0  0  0  0
 12 17  1  0  0  0  0
 13 14  1  0  0  0  0
 13 30  1  0  0  0  0
 14 15  2  0  0  0  0
 14 31  1  0  0  0  0
 15 16  1  0  0  0  0
 15 20  1  0  0  0  0
 16 17  2  0  0  0  0
 16 32  1  0  0  0  0
 17 33  1  0  0  0  0
 18 34  1  0  0  0  0
 18 35  1  0  0  0  0
 18 36  1  0  0  0  0
 20 21  1  0  0  0  0
 20 25  1  0  0  0  0
 20 37  1  1  0  0  0
 21 22  1  0  0  0  0
 21 38  1  0  0  0  0
 21 39  1  0  0  0  0
 22 23  1  0  0  0  0
 22 40  1  0  0  0  0
 22 41  1  0  0  0  0
 23 24  1  0  0  0  0
 23 26  1  0  0  0  0
 23 49  1  6  0  0  0
 24 25  1  0  0  0  0
 24 42  1  0  0  0  0
 24 43  1  0  0  0  0
 25 44  1  0  0  0  0
 25 45  1  0  0  0  0
 26 46  1  0  0  0  0
 26 47  1  0  0  0  0
 26 48  1  0  0  0  0
M  CHG  1  23   1
M  END
>  <Name>
8f

>  <IC50[nM]>
2.2

>  <Total Formal Charge>
1

>  <Favorite_cresset>
false

>  <MW_cresset>
352.4

>  <#Atoms_cresset>
26

>  <SlogP_cresset>
4

>  <TPSA_cresset>
45.9

>  <Flexibility_cresset>
1.3

>  <#RB_cresset>
2

>  <Rof5_cresset>
0

>  <Filename_cresset>
ligands_tnks2.sdf

>  <Tags_cresset>
pos_charge

>  <Confs_cresset>
0

>  <Poses_cresset>
0

>  <Activity (Primary)_cresset>
No Primary Activity Set

$$$$
