# Molecule written by the XED library from Cresset
@<TRIPOS>MOLECULE
CatS_127
    88     92      1
SMALL
USER_CHARGES
@<TRIPOS>ATOM
      1  C1         -4.4861    7.5390   -5.7132 C.ar      1 MOL1       -0.0846
      2  C2         -4.6602    6.7109   -4.6310 C.ar      1 MOL1       -0.0687
      3  C3         -5.8702    6.6379   -3.9730 C.ar      1 MOL1        0.0171
      4  C4         -6.9109    7.4267   -4.4419 C.ar      1 MOL1        0.0480
      5  C5         -6.7442    8.2479   -5.5343 C.ar      1 MOL1       -0.0655
      6  C6         -5.5264    8.3208   -6.1832 C.ar      1 MOL1       -0.0066
      7  C7         -5.3730    9.2152   -7.3199 C.ar      1 MOL1        0.0391
      8  C8         -6.3012    9.5350   -8.3340 C.ar      1 MOL1       -0.0691
      9  C9         -5.6320   10.3809   -9.1234 C.ar      1 MOL1        0.0571
     10  N1         -4.3651   10.6261   -8.6809 N.pl3     1 MOL1       -0.0670
     11  N2         -4.2577    9.8690   -7.5652 N.2       1 MOL1       -0.2943
     12  C10        -3.2820   11.5018   -9.1681 C.3       1 MOL1        0.0979
     13  C11        -3.0351   12.9250   -8.6220 C.3       1 MOL1        0.0191
     14  C12        -2.4581   12.8949   -7.1938 C.3       1 MOL1       -0.0328
     15  N3         -2.1130   14.2739   -6.7860 N.4       1 MOL1       -0.2283
     16  C13        -1.2460   14.9390   -7.7821 C.3       1 MOL1       -0.0630
     17  C14        -0.9278   16.3790   -7.3870 C.3       1 MOL1       -0.0834
     18  C15        -0.3050   16.4249   -5.9977 C.3       1 MOL1       -0.0872
     19  C16        -1.2030   15.7168   -4.9989 C.3       1 MOL1       -0.0834
     20  C17        -1.4791   14.2951   -5.4641 C.3       1 MOL1       -0.0630
     21  O1         -4.2611   13.6689   -8.5963 O.3       1 MOL1       -0.4408
     22  C18        -6.2651   10.9469  -10.3859 C.3       1 MOL1       -0.0166
     23  C19        -7.7957   10.7439  -10.4581 C.3       1 MOL1        0.0799
     24  N4         -8.2501    9.4450   -9.9049 N.am      1 MOL1       -0.3999
     25  C20        -7.7318    9.0717   -8.5742 C.3       1 MOL1        0.1146
     26  C21        -9.1893    8.7026  -10.5179 C.2       1 MOL1        0.3495
     27  O2         -9.4763    7.5543  -10.2079 O.2       1 MOL1       -0.3738
     28  S1         -8.5189    7.4481   -3.6402 S.3       1 MOL1       -0.1783
     29  C26        -9.0884    9.1669   -3.5891 C.3       1 MOL1       -0.0087
     30  C27        -7.9860   10.0770   -3.0060 C.3       1 MOL1       -0.0441
     31  N5         -8.4742   11.0243   -1.9849 N.4       1 MOL1       -0.2284
     32  C28        -9.7343   11.6309   -2.4139 C.3       1 MOL1       -0.0566
     33  C29       -10.2921   12.5449   -1.3274 C.3       1 MOL1       -0.0467
     34  C30        -9.3058   13.6379   -0.9381 C.3       1 MOL1        0.0498
     35  C31        -7.9539   13.0169   -0.6358 C.3       1 MOL1       -0.0467
     36  C32        -7.4939   12.0831   -1.7471 C.3       1 MOL1       -0.0566
     37  C33        -5.9540    5.6900   -2.7789 C.3       1 MOL1        0.4149
     38  F2         -5.8196    6.3781   -1.5790 F         1 MOL1       -0.1514
     39  F3         -7.1848    5.0440   -2.7509 F         1 MOL1       -0.1514
     40  F4         -4.9793    4.6960   -2.7843 F         1 MOL1       -0.1514
     41  H41        -9.7173   14.1889    0.0450 F         1 MOL1       -0.2169
     42  H          -9.9884    9.3586  -11.5873 C.2       1 MOL1        0.3494
     43  H         -10.2464    8.7888  -12.7829 O.3       1 MOL1       -0.1660
     44  H         -10.4283   10.4647  -11.3196 O.2       1 MOL1       -0.3285
     45  H          -9.7158    7.4752  -13.0225 C.3       1 MOL1       -0.0433
     46  H          -9.1951   14.5600   -1.9738 H         1 MOL1        0.0735
     47  H1         -2.2381   13.4761   -9.3290 H         1 MOL1        0.0680
     48  H2         -3.5972    7.5729   -6.1660 H         1 MOL1        0.0910
     49  H3         -3.8923    6.1561   -4.3164 H         1 MOL1        0.0908
     50  H4         -7.5099    8.8059   -5.8540 H         1 MOL1        0.0929
     51  H5         -2.2558   10.8949   -9.0270 H         1 MOL1        0.0624
     52  H6         -3.4737   11.6017  -10.3479 H         1 MOL1        0.0624
     53  H7         -3.2399   12.3629   -6.4550 H         1 MOL1        0.0549
     54  H8         -1.4850   12.1938   -7.2511 H         1 MOL1        0.0549
     55  H9         -0.2440   14.3010   -7.9562 H         1 MOL1        0.0529
     56  H10        -1.8488   14.9610   -8.8192 H         1 MOL1        0.0529
     57  H11        -0.1582   16.8700   -8.1651 H         1 MOL1        0.0467
     58  H12        -1.9399   17.0231   -7.3742 H         1 MOL1        0.0467
     59  H13        -0.1763   17.5700   -5.6631 H         1 MOL1        0.0460
     60  H14         0.7698   15.8919   -6.0169 H         1 MOL1        0.0460
     61  H15        -2.2421   16.3121   -4.9179 H         1 MOL1        0.0467
     62  H16        -0.6710   15.7251   -3.9250 H         1 MOL1        0.0467
     63  H17        -0.4576   13.6637   -5.4442 H         1 MOL1        0.0529
     64  H18        -2.2312   13.8079   -4.6656 H         1 MOL1        0.0529
     65  H19        -4.1119   14.6072   -8.2651 H         1 MOL1        0.3291
     66  H20        -6.0528   12.1223  -10.4689 H         1 MOL1        0.0516
     67  H21        -5.7720   10.3859  -11.3250 H         1 MOL1        0.0516
     68  H22        -8.1118   10.9422  -11.5962 H         1 MOL1        0.0595
     69  H23        -8.3139   11.5921   -9.7849 H         1 MOL1        0.0595
     70  H24        -8.4470    9.5698   -7.7479 H         1 MOL1        0.0622
     71  H25        -7.7660    7.8780   -8.4601 H         1 MOL1        0.0622
     72  H33       -10.0799    9.2620   -2.9209 H         1 MOL1        0.0553
     73  H34        -9.3421    9.4980   -4.7150 H         1 MOL1        0.0553
     74  H35        -7.1078    9.4010   -2.5440 H         1 MOL1        0.0547
     75  H36        -7.5291   10.7101   -3.9190 H         1 MOL1        0.0547
     76  H37       -10.5091   10.7479   -2.6622 H         1 MOL1        0.0529
     77  H38        -9.5520   12.2629   -3.4193 H         1 MOL1        0.0529
     78  H39       -11.2779   13.0980   -1.7301 H         1 MOL1        0.0497
     79  H40       -10.5781   11.9110   -0.3479 H         1 MOL1        0.0497
     80  H42        -8.0538   12.4062    0.3931 H         1 MOL1        0.0497
     81  H43        -7.1288   13.8769   -0.4890 H         1 MOL1        0.0497
     82  H44        -7.3409   12.7000   -2.7652 H         1 MOL1        0.0529
     83  H45        -6.4350   11.6081   -1.4360 H         1 MOL1        0.0529
     84  H          -2.8877   14.7486   -6.7174 H         1 MOL1        0.1921
     85  H          -8.6154   10.5657   -1.2092 H         1 MOL1        0.1921
     86  H          -8.5290    7.4818  -12.8470 H         1 MOL1        0.0618
     87  H          -9.9522    7.1607  -14.1563 H         1 MOL1        0.0618
     88  H         -10.2365    6.6881  -12.2818 H         1 MOL1        0.0618
@<TRIPOS>BOND
     1      1      2 ar
     2      1      6 ar
     3      2      3 ar
     4      3      4 ar
     5      3     37 1 
     6      4      5 ar
     7      4     28 1 
     8      5      6 ar
     9      6      7 1 
    10      7      8 ar
    11      7     11 ar
    12      8      9 ar
    13      8     25 1 
    14      9     10 ar
    15      9     22 1 
    16     10     11 ar
    17     10     12 1 
    18     12     13 1 
    19     13     14 1 
    20     13     21 1 
    21     14     15 1 
    22     15     16 1 
    23     15     20 1 
    24     16     17 1 
    25     17     18 1 
    26     18     19 1 
    27     19     20 1 
    28     22     23 1 
    29     23     24 1 
    30     24     25 1 
    31     24     26 am
    32     26     27 2 
    33     28     29 1 
    34     29     30 1 
    35     30     31 1 
    36     31     32 1 
    37     31     36 1 
    38     32     33 1 
    39     33     34 1 
    40     34     35 1 
    41     34     41 1 
    42     35     36 1 
    43     37     38 1 
    44     37     39 1 
    45     37     40 1 
    46     42     26 1 
    47     43     42 1 
    48     44     42 2 
    49     45     43 1 
    50      1     48 1 
    51      2     49 1 
    52      5     50 1 
    53     12     51 1 
    54     12     52 1 
    55     13     47 1 
    56     14     53 1 
    57     14     54 1 
    58     15     84 1 
    59     16     55 1 
    60     16     56 1 
    61     17     57 1 
    62     17     58 1 
    63     18     59 1 
    64     18     60 1 
    65     19     61 1 
    66     19     62 1 
    67     20     63 1 
    68     20     64 1 
    69     21     65 1 
    70     22     66 1 
    71     22     67 1 
    72     23     68 1 
    73     23     69 1 
    74     25     70 1 
    75     25     71 1 
    76     29     72 1 
    77     29     73 1 
    78     30     74 1 
    79     30     75 1 
    80     31     85 1 
    81     32     76 1 
    82     32     77 1 
    83     33     78 1 
    84     33     79 1 
    85     34     46 1 
    86     35     80 1 
    87     35     81 1 
    88     36     82 1 
    89     36     83 1 
    90     86     45 1 
    91     87     45 1 
    92     88     45 1 
@<TRIPOS>SUBSTRUCTURE
     1 MOL1         1 MOLECULE          1 A
