@<TRIPOS>MOLECULE
lig_02_ligOMe
 56 59 0 0 0
SMALL
GASTEIGER

@<TRIPOS>ATOM
      1 C          10.6300   -9.3600    0.1100 C.ar    1  LIG1        0.2034
      2 C          11.7700   -9.2100   -0.6800 C.ar    1  LIG1        0.1742
      3 C          10.7000   -9.2100    1.4900 C.ar    1  LIG1        0.1961
      4 C          11.9100   -8.9000    2.0900 C.ar    1  LIG1        0.2034
      5 C          13.0600   -8.7200    1.3100 C.ar    1  LIG1        0.1742
      6 C          13.0100   -8.8900   -0.0800 C.ar    1  LIG1        0.0799
      7 C          14.2500   -8.7000   -0.9100 C.ar    1  LIG1        0.1183
      8 N          14.2400   -8.2900   -2.1600 N.ar    1  LIG1       -0.1293
      9 N          15.5400   -8.0900   -2.6000 N.ar    1  LIG1       -0.0647
     10 C          15.5800   -8.8800   -0.5200 C.ar    1  LIG1        0.0540
     11 N          16.3300   -8.4500   -1.5800 N.ar    1  LIG1       -0.2429
     12 C          17.7800   -8.2100   -1.6600 C.3     1  LIG1        0.1116
     13 C          18.6200   -9.4500   -1.2500 C.3     1  LIG1        0.1157
     14 O          18.3500  -10.5500   -2.1100 O.3     1  LIG1       -0.3861
     15 C          18.1700   -7.0000   -0.7800 C.3     1  LIG1        0.1083
     16 O          17.7800   -7.1800    0.5700 O.3     1  LIG1       -0.3869
     17 C          19.6900   -6.7300   -0.8800 C.3     1  LIG1        0.1111
     18 C          20.1300   -5.5300   -0.0200 C.3     1  LIG1        0.0729
     19 O          21.4800   -5.2100   -0.2200 O.3     1  LIG1       -0.3924
     20 O          20.4000   -7.9100   -0.4900 O.3     1  LIG1       -0.3550
     21 C          20.1300   -9.0900   -1.2600 C.3     1  LIG1        0.1369
     22 S          21.1200  -10.4600   -0.5800 S.3     1  LIG1       -0.0912
     23 C          22.8000  -10.0900   -0.9500 C.ar    1  LIG1        0.0104
     24 C          23.2100   -9.9300   -2.2800 C.ar    1  LIG1       -0.0480
     25 C          24.5400   -9.6400   -2.5700 C.ar    1  LIG1       -0.0578
     26 C          25.4600   -9.5000   -1.5300 C.ar    1  LIG1       -0.0504
     27 C          25.0600   -9.6700   -0.2000 C.ar    1  LIG1       -0.0578
     28 C          23.7300   -9.9700    0.0900 C.ar    1  LIG1       -0.0480
     29 H          16.0400   -9.1800    0.4000 H       1  LIG1        0.0849
     30 H          18.0400   -7.9700   -2.6900 H       1  LIG1        0.0599
     31 H          18.3300   -9.7700   -0.2400 H       1  LIG1        0.0650
     32 H          18.8800  -11.2900   -1.8200 H       1  LIG1        0.2100
     33 H          17.6200   -6.1200   -1.1300 H       1  LIG1        0.0642
     34 H          17.7300   -6.3100    1.0000 H       1  LIG1        0.2100
     35 H          19.9300   -6.5100   -1.9200 H       1  LIG1        0.0646
     36 H          19.9700   -5.7200    1.0400 H       1  LIG1        0.0584
     37 H          19.5400   -4.6400   -0.2800 H       1  LIG1        0.0584
     38 H          22.0200   -5.9300    0.1400 H       1  LIG1        0.2095
     39 H          20.4700   -8.9300   -2.2800 H       1  LIG1        0.0743
     40 H          22.4900  -10.0300   -3.0900 H       1  LIG1        0.0629
     41 H          24.8500   -9.5100   -3.5900 H       1  LIG1        0.0621
     42 H          25.7600   -9.5700    0.6100 H       1  LIG1        0.0621
     43 H          23.4200  -10.1000    1.1100 H       1  LIG1        0.0629
     44 F           9.4400   -9.6600   -0.4800 F       1  LIG1       -0.1985
     45 F          11.6700   -9.3900   -2.0100 F       1  LIG1       -0.2016
     46 F          11.9800   -8.7700    3.4400 F       1  LIG1       -0.1985
     47 F          14.2100   -8.3900    1.9400 F       1  LIG1       -0.2016
     48 C          26.9100   -9.1700   -1.8500 C.3     1  LIG1       -0.0397
     49 H          27.4400   -8.8100   -0.9700 H       1  LIG1        0.0278
     50 H          27.4200  -10.0600   -2.2200 H       1  LIG1        0.0278
     51 H          26.9600   -8.4000   -2.6200 H       1  LIG1        0.0278
     52 O           9.5800   -9.3900    2.2500 O.3     1  LIG1       -0.4895
     53 C           8.4200   -9.7400    1.3700 C.3     1  LIG1        0.0791
     54 H           7.5300   -9.8800    1.9800 H       1  LIG1        0.0660
     55 H           8.2500   -8.9300    0.6600 H       1  LIG1        0.0660
     56 H           8.6400  -10.6500    0.8200 H       1  LIG1        0.0660
@<TRIPOS>BOND
     1    25    41    1
     2    24    40    1
     3    12    30    1
     4    48    51    1
     5     8     9   ar
     6     9    11   ar
     7    24    25   ar
     8    25    26   ar
     9    23    24   ar
    10    21    39    1
    11    48    50    1
    12     7     8   ar
    13    14    32    1
    14    13    14    1
    15     2    45    1
    16    17    35    1
    17    26    48    1
    18    48    49    1
    19    11    12    1
    20    12    13    1
    21    12    15    1
    22    10    11   ar
    23    26    27   ar
    24    13    21    1
    25    21    22    1
    26    20    21    1
    27    13    31    1
    28    15    33    1
    29    22    23    1
    30    23    28   ar
    31     7    10   ar
    32     6     7    1
    33    15    17    1
    34    17    20    1
    35    17    18    1
    36    15    16    1
    37     2     6   ar
    38     1     2   ar
    39    10    29    1
    40     1    44    1
    41    18    37    1
    42    18    19    1
    43    19    38    1
    44    27    28   ar
    45    27    42    1
    46     5     6   ar
    47    18    36    1
    48    28    43    1
    49     1     3   ar
    50    16    34    1
    51    53    55    1
    52    53    56    1
    53     5    47    1
    54     4     5   ar
    55    53    54    1
    56    52    53    1
    57     3     4   ar
    58     3    52    1
    59     4    46    1
